<?xml version="1.0" encoding="UTF-8"?>

<!-- generated on 2023-04-21 09:31:34.846891 by ptlines2flows.py v1_16_0+1095-e5f7288d143
  options: -n osm.net.xml.gz -b 0 -e 1000 -p 600 <doubleminus>random-begin <doubleminus>seed 42 <doubleminus>ptstops osm_stops.add.xml <doubleminus>ptlines osm_ptlines.xml -o osm_pt.rou.xml <doubleminus>ignore-errors <doubleminus>vtype-prefix pt_ <doubleminus>stopinfos-file stopinfos.xml <doubleminus>routes-file vehroutes.xml <doubleminus>trips-file trips.trips.xml <doubleminus>min-stops 0 <doubleminus>extend-to-fringe <doubleminus>verbose
-->

<routes xmlns:xsi="http://www.w3.org/2001/XMLSchema-instance" xsi:noNamespaceSchemaLocation="http://sumo.dlr.de/xsd/routes_file.xsd">
    <vType id="pt_bus" vClass="bus"/>
    <vType id="pt_tram" vClass="tram"/>
    <vType id="pt_train" vClass="rail"/>
    <vType id="pt_subway" vClass="rail_urban"/>
    <vType id="pt_light_rail" vClass="rail_urban"/>
    <vType id="pt_monorail" vClass="rail_urban"/>
    <vType id="pt_trolleybus" vClass="bus"/>
    <vType id="pt_minibus" vClass="bus"/>
    <vType id="pt_share_taxi" vClass="taxi"/>
    <vType id="pt_aerialway" vClass="rail_urban" length="2.5" width="2" personCapacity="4"/>
    <vType id="pt_ferry" vClass="ship"/>
    <route id="pt_bus_14:0" edges="211557607#0 232725809 669229893#0 232725808 1135566870 211557609#0 211557609#1 211557609#2 1135566096#0 1135566095#0 1135566095#1 1135565527#0 1135565526#0 1135565526#1 4376571#0 43486254#0 211487026#0 4376580 542471105#0 542471105#1 542471105#3 1094661232#0 1094661232#3" >
        <stop busStop="469780509" duration="20" until="59.0"/> <!-- Old Bond Street / Royal Academy -->
    </route>
    <route id="pt_bus_38:1" edges="-1065127950 -1094661232#2 -542471105#5 -542471105#2 -542471105#0 542471106 -211487026#1 210447794#0 210447794#3 1135565524#0 1135565525#0 1135566097 1135566098#0 211486426#0 -669229893#0 669229894#0" >
    </route>
    <route id="pt_bus_19:0" edges="-1065127950 -1094661232#2 -542471105#5 -542471105#2 -542471105#0 542471106 -211487026#1 210447794#0 210447794#3 1135565524#0 1135565525#0 1135566097 1135566098#0 211486426#0 -669229893#0 669229894#0" >
        <stop busStop="6266808744" duration="20" until="276.0"/> <!-- Old Bond Street / Royal Academy -->
    </route>
    <route id="pt_bus_19:1" edges="211557607#0 232725809 669229893#0 232725808 1135566870 211557609#0 211557609#1 211557609#2 1135566096#0 1135566095#0 1135566095#1 1135565527#0 1135565526#0 1135565526#1 4376571#0 43486254#0 211487026#0 4376580 542471105#0 542471105#1 542471105#3 1094661232#0 1094661232#3" >
        <stop busStop="469780509" duration="20" until="85.0"/> <!-- Old Bond Street / Royal Academy -->
    </route>
    <route id="pt_bus_9:1" edges="183056157#0 4356102 1018924455 1018924456 462641800#0 35085536#0 1135565524#0 1135565525#0 1135566097 1135566098#0 211486426#0 -669229893#0 669229894#0" >
        <stop busStop="4641072776" duration="20" until="74.0"/> <!-- Regent Street / St James's -->
        <stop busStop="6266808744" duration="20" until="274.0"/> <!-- Old Bond Street / Royal Academy -->
    </route>
    <route id="pt_bus_38:0" edges="211557607#0 232725809 669229893#0 232725808 1135566870 211557609#0 211557609#1 211557609#2 1135566096#0 1135566095#0 1135566095#1 1135565527#0 1135565526#0 1135565526#1 4376571#0 43486254#0 211487026#0 4376580 542471105#0 542471105#1 542471105#3 1094661232#0 1094661232#3" >
        <stop busStop="469780509" duration="20" until="118.0"/> <!-- Old Bond Street / Royal Academy -->
    </route>
    <route id="pt_bus_6:1" edges="183056157#0 4356102 1018924455 1018924456 462641800#0 35085536#0 1135565524#0 1135565525#0 1135566097 1135566098#0 211486426#0 -669229893#0 669229894#0" >
        <stop busStop="4641072776" duration="20" until="89.0"/> <!-- Regent Street / St James's -->
        <stop busStop="6266808744" duration="20" until="265.0"/> <!-- Old Bond Street / Royal Academy -->
    </route>
    <route id="pt_bus_159:1" edges="1018951411 1018951414 1018951415#0 1018951422#0 1018951417 38748498#0 38748498#2 1018951420 1064360339#0 1018951428#0 1018951429 1018951431 1018951433 399696957 1018945234#0 1018945232 43118736#0 215065448#0 4369048#0 35085535#0 35085535#1 436945579#0 436945579#1 53876136 1065112862 210500025#0 507776882" >
        <stop busStop="4631979550" duration="20" until="45.0"/> <!-- Conduit Street / Hamleys Toy Store -->
        <stop busStop="4638405889" duration="20" until="159.0"/> <!-- Piccadilly Circus -->
        <stop busStop="4641072779" duration="20" until="285.0"/> <!-- Haymarket / Charles II Street -->
    </route>
    <route id="pt_bus_9:0" edges="211557607#0 232725809 669229893#0 232725808 1135566870 211557609#0 211557609#1 211557609#2 1135566096#0 1135566095#0 1135566095#1 1135565527#0 1135565526#0 1135565526#1 4376571#0 215065448#0 4369048#0 35085535#0 35085535#1 436945579#0 436945579#1 53876136 1065112862 210500025#0 507776882" >
        <stop busStop="469780509" duration="20" until="126.0"/> <!-- Old Bond Street / Royal Academy -->
        <stop busStop="4641072778" duration="20" until="328.0"/> <!-- Haymarket / Jermyn Street -->
    </route>
    <route id="pt_bus_159:0" edges="183056157#0 4356102 1018924455 1018924456 462641800#0 35085536#0 4376571#0 210447794#3 193420534 436943364#0 1018945233 1018943769 436938229 1018951434 1018951432 1067635382 1018951427#0 1018951427#2 1067635381 1018951424 1018951419 436938220#0 436938220#2 1018951418 1018951421#0 1024601863#0 1018951416 1018951413" >
        <stop busStop="4641072776" duration="20" until="106.0"/> <!-- Regent Street / St James's -->
        <stop busStop="4347844151" duration="20" until="266.0"/> <!-- Piccadilly Circus -->
        <stop busStop="4631979549" duration="20" until="370.0"/> <!-- Conduit Street / Hamleys Toy Store -->
    </route>
    <route id="pt_bus_14:1" edges="-1065127950 -1094661232#2 -542471105#5 -542471105#2 -542471105#0 542471106 -211487026#1 210447794#0 210447794#3 1135565524#0 1135565525#0 1135566097 1135566098#0 211486426#0 -669229893#0 669229894#0" >
        <stop busStop="6266808744" duration="20" until="243.0"/> <!-- Old Bond Street / Royal Academy -->
    </route>
    <route id="pt_bus_6:0" edges="211557607#0 232725809 669229893#0 232725808 1135566870 211557609#0 211557609#1 211557609#2 1135566096#0 1135566095#0 1135566095#1 1135565527#0 1135565526#0 1135565526#1 4376571#0 215065448#0 4369048#0 35085535#0 35085535#1 436945579#0 436945579#1 53876136 1065112862 210500025#0 507776882" >
        <stop busStop="469780509" duration="20" until="98.0"/> <!-- Old Bond Street / Royal Academy -->
        <stop busStop="4641072778" duration="20" until="307.0"/> <!-- Haymarket / Jermyn Street -->
    </route>
    <route id="pt_bus_453:1" edges="183056157#0 4356102 1018924455 1018924456 462641800#0 35085536#0 4376571#0 210447794#3 193420534 436943364#0 1018945233 1018943769 436938229 1018951434 1018951432 1067635382 1018951427#0 1018951427#2 1067635381 1018951424 1018951419 436938220#0 436938220#2 1018951418 1018951421#0 1024601863#0 1018951416 1018951413" >
        <stop busStop="4641072775" duration="20" until="96.0"/> <!-- Regent Street / St James's -->
        <stop busStop="4347844151" duration="20" until="252.0"/> <!-- Piccadilly Circus -->
        <stop busStop="4631979549" duration="20" until="365.0"/> <!-- Conduit Street / Hamleys Toy Store -->
    </route>
    <route id="pt_bus_453:0" edges="1018951411 1018951414 1018951415#0 1018951422#0 1018951417 38748498#0 38748498#2 1018951420 1064360339#0 1018951428#0 1018951429 1018951431 1018951433 399696957 1018945234#0 1018945232 43118736#0 215065448#0 4369048#0 35085535#0 35085535#1 436945579#0 436945579#1 53876136 1065112862 210500025#0 507776882" >
        <stop busStop="4631979550" duration="20" until="45.0"/> <!-- Conduit Street / Hamleys Toy Store -->
        <stop busStop="4638405889" duration="20" until="173.0"/> <!-- Piccadilly Circus -->
        <stop busStop="4641072779" duration="20" until="342.0"/> <!-- Haymarket / Charles II Street -->
    </route>
    <route id="pt_bus_139:0" edges="1018951411 1018951414 1018951415#0 1018951422#0 1018951417 38748498#0 38748498#2 1018951420 1064360339#0 1018951428#0 1018951429 1018951431 1018951433 399696957 1018945234#0 1018945232 43118736#0 215065448#0 4369048#0 35085535#0 35085535#1 436945579#0 436945579#1 53876136 1065112862 210500025#0 507776882" >
        <stop busStop="4631979552" duration="20" until="93.0"/> <!-- Beak Street / Hamleys Toy Store -->
        <stop busStop="4638405889" duration="20" until="178.0"/> <!-- Piccadilly Circus -->
        <stop busStop="4641072778" duration="20" until="299.0"/> <!-- Haymarket / Jermyn Street -->
    </route>
    <route id="pt_bus_12:0" edges="1018951411 1018951414 1018951415#0 1018951422#0 1018951417 38748498#0 38748498#2 1018951420 1064360339#0 1018951428#0 1018951429 1018951431 1018951433 399696957 1018945234#0 1018945232 43118736#0 215065448#0 4369048#0 35085535#0 35085535#1 436945579#0 436945579#1 53876136 1065112862 210500025#0 507776882" >
        <stop busStop="4631979550" duration="20" until="47.0"/> <!-- Conduit Street / Hamleys Toy Store -->
        <stop busStop="4638405889" duration="20" until="177.0"/> <!-- Piccadilly Circus -->
        <stop busStop="4641072779" duration="20" until="321.0"/> <!-- Haymarket / Charles II Street -->
    </route>
    <route id="pt_bus_12:1" edges="183056157#0 4356102 1018924455 1018924456 462641800#0 35085536#0 4376571#0 210447794#3 193420534 436943364#0 1018945233 1018943769 436938229 1018951434 1018951432 1067635382 1018951427#0 1018951427#2 1067635381 1018951424 1018951419 436938220#0 436938220#2 1018951418 1018951421#0 1024601863#0 1018951416 1018951413" >
        <stop busStop="4641072775" duration="20" until="88.0"/> <!-- Regent Street / St James's -->
        <stop busStop="4347844151" duration="20" until="253.0"/> <!-- Piccadilly Circus -->
        <stop busStop="4631979551" duration="20" until="330.0"/> <!-- Beak Street / Hamleys Toy Store -->
    </route>
    <route id="pt_bus_94:0" edges="2263976 462641798 1018924455 1018924456 462641800#0 35085536#0 4376571#0 210447794#3 193420534 436943364#0 1018945233 1018943769 436938229 1018951434 1018951432 1067635382 1018951427#0 1018951427#2 1067635381 1018951424 1018951419 436938220#0 436938220#2 1018951418 1018951421#0 1024601863#0 1018951416 1018951413" >
        <stop busStop="4641072775" duration="20" until="100.0"/> <!-- Regent Street / St James's -->
        <stop busStop="4347844151" duration="20" until="266.0"/> <!-- Piccadilly Circus -->
        <stop busStop="4631979549" duration="20" until="371.0"/> <!-- Conduit Street / Hamleys Toy Store -->
    </route>
    <route id="pt_bus_88:1" edges="1018951411 1018951414 1018951415#0 1018951422#0 1018951417 38748498#0 38748498#2 1018951420 1064360339#0 1018951428#0 1018951429 1018951431 1018951433 399696957 1018945234#0 1018945232 43118736#0 215065448#0 4369048#0 35085535#0 35085535#1 436945579#0 436945579#1 53876136 1065112862 210500025#0 507776882" >
        <stop busStop="4631979550" duration="20" until="47.0"/> <!-- Conduit Street / Hamleys Toy Store -->
        <stop busStop="4638405889" duration="20" until="168.0"/> <!-- Piccadilly Circus -->
        <stop busStop="4641072779" duration="20" until="321.0"/> <!-- Haymarket / Charles II Street -->
    </route>
    <route id="pt_bus_88:0" edges="183056157#0 4356102 1018924455 1018924456 462641800#0 35085536#0 4376571#0 210447794#3 193420534 436943364#0 1018945233 1018943769 436938229 1018951434 1018951432 1067635382 1018951427#0 1018951427#2 1067635381 1018951424 1018951419 436938220#0 436938220#2 1018951418 1018951421#0 1024601863#0 1018951416 1018951413" >
        <stop busStop="4641072775" duration="20" until="102.0"/> <!-- Regent Street / St James's -->
        <stop busStop="4347844151" duration="20" until="272.0"/> <!-- Piccadilly Circus -->
        <stop busStop="4631979549" duration="20" until="376.0"/> <!-- Conduit Street / Hamleys Toy Store -->
    </route>
    <route id="pt_bus_N38:1" edges="-1065127950 -1094661232#2 -542471105#5 -542471105#2 -542471105#0 542471106 -211487026#1 210447794#0 210447794#3 1135565524#0 1135565525#0 1135566097 1135566098#0 211486426#0 -669229893#0 669229894#0" >
    </route>
    <route id="pt_bus_N113:1" edges="183056157#0 4356102 1018924455 1018924456 462641800#0 35085536#0 4376571#0 210447794#3 193420534 436943364#0 1018945233 1018943769 436938229 1018951434 1018951432 1067635382 1018951427#0 1018951427#2 1067635381 1018951424 1018951419 436938220#0 436938220#2 1018951418 1018951421#0 1024601863#0 1018951416 1018951413" >
        <stop busStop="4641072776" duration="20" until="73.0"/> <!-- Regent Street / St James's -->
        <stop busStop="4347844151" duration="20" until="283.0"/> <!-- Piccadilly Circus -->
        <stop busStop="4631979551" duration="20" until="361.0"/> <!-- Beak Street / Hamleys Toy Store -->
    </route>
    <route id="pt_bus_N113:0" edges="1018951411 1018951414 1018951415#0 1018951422#0 1018951417 38748498#0 38748498#2 1018951420 1064360339#0 1018951428#0 1018951429 1018951431 1018951433 399696957 1018945234#0 1018945232 43118736#0 215065448#0 4369048#0 35085535#0 35085535#1 436945579#0 436945579#1 53876136 1065112862 210500025#0 507776882" >
        <stop busStop="4631979552" duration="20" until="116.0"/> <!-- Beak Street / Hamleys Toy Store -->
        <stop busStop="4638405889" duration="20" until="201.0"/> <!-- Piccadilly Circus -->
        <stop busStop="4641072778" duration="20" until="345.0"/> <!-- Haymarket / Jermyn Street -->
    </route>
    <route id="pt_bus_N97:0" edges="211557607#0 232725809 669229893#0 232725808 1135566870 211557609#0 211557609#1 211557609#2 1135566096#0 1135566095#0 1135566095#1 1135565527#0 1135565526#0 1135565526#1 4376571#0 215065448#0 4369048#0 35085535#0 35085535#1 436945579#0 436945579#1 53876136 1065112862 210500025#0 507776882" >
        <stop busStop="469780509" duration="20" until="68.0"/> <!-- Old Bond Street / Royal Academy -->
        <stop busStop="4641072779" duration="20" until="287.0"/> <!-- Haymarket / Charles II Street -->
    </route>
    <route id="pt_bus_N9:0" edges="211557607#0 232725809 669229893#0 232725808 1135566870 211557609#0 211557609#1 211557609#2 1135566096#0 1135566095#0 1135566095#1 1135565527#0 1135565526#0 1135565526#1 4376571#0 215065448#0 4369048#0 35085535#0 35085535#1 436945579#0 436945579#1 53876136 1065112862 210500025#0 507776882" >
        <stop busStop="469780509" duration="20" until="86.0"/> <!-- Old Bond Street / Royal Academy -->
        <stop busStop="4641072778" duration="20" until="274.0"/> <!-- Haymarket / Jermyn Street -->
    </route>
    <route id="pt_bus_139:1" edges="183056157#0 4356102 1018924455 1018924456 462641800#0 35085536#0 4376571#0 210447794#3 193420534 436943364#0 1018945233 1018943769 436938229 1018951434 1018951432 1067635382 1018951427#0 1018951427#2 1067635381 1018951424 1018951419 436938220#0 436938220#2 1018951418 1018951421#0 1024601863#0 1018951416 1018951413" >
        <stop busStop="4641072776" duration="20" until="145.0"/> <!-- Regent Street / St James's -->
        <stop busStop="4347844151" duration="20" until="305.0"/> <!-- Piccadilly Circus -->
        <stop busStop="4631979551" duration="20" until="387.0"/> <!-- Beak Street / Hamleys Toy Store -->
    </route>
    <route id="pt_bus_N19:0" edges="-1065127950 -1094661232#2 -542471105#5 -542471105#2 -542471105#0 542471106 -211487026#1 210447794#0 210447794#3 1135565524#0 1135565525#0 1135566097 1135566098#0 211486426#0 -669229893#0 669229894#0" >
        <stop busStop="6266808744" duration="20" until="262.0"/> <!-- Old Bond Street / Royal Academy -->
    </route>
    <route id="pt_bus_N38:0" edges="211557607#0 232725809 669229893#0 232725808 1135566870 211557609#0 211557609#1 211557609#2 1135566096#0 1135566095#0 1135566095#1 1135565527#0 1135565526#0 1135565526#1 4376571#0 43486254#0 211487026#0 4376580 542471105#0 542471105#1 542471105#3 1094661232#0 1094661232#3" >
        <stop busStop="469780509" duration="20" until="78.0"/> <!-- Old Bond Street / Royal Academy -->
    </route>
    <route id="pt_bus_N3:1" edges="1018951411 1018951414 1018951415#0 1018951422#0 1018951417 38748498#0 38748498#2 1018951420 1064360339#0 1018951428#0 1018951429 1018951431 1018951433 399696957 1018945234#0 1018945232 43118736#0 215065448#0 4369048#0 35085535#0 35085535#1 436945579#0 436945579#1 53876136 1065112862 210500025#0 507776882" >
        <stop busStop="4631979550" duration="20" until="48.0"/> <!-- Conduit Street / Hamleys Toy Store -->
        <stop busStop="4638405889" duration="20" until="183.0"/> <!-- Piccadilly Circus -->
        <stop busStop="4641072779" duration="20" until="359.0"/> <!-- Haymarket / Charles II Street -->
    </route>
    <route id="pt_bus_N97:1" edges="183056157#0 4356102 1018924455 1018924456 462641800#0 35085536#0 1135565524#0 1135565525#0 1135566097 1135566098#0 211486426#0 -669229893#0 669229894#0" >
        <stop busStop="4641072776" duration="20" until="195.0"/> <!-- Regent Street / St James's -->
        <stop busStop="6266808744" duration="20" until="369.0"/> <!-- Old Bond Street / Royal Academy -->
    </route>
    <route id="pt_bus_N19:1" edges="211557607#0 232725809 669229893#0 232725808 1135566870 211557609#0 211557609#1 211557609#2 1135566096#0 1135566095#0 1135566095#1 1135565527#0 1135565526#0 1135565526#1 4376571#0 43486254#0 211487026#0 4376580 542471105#0 542471105#1 542471105#3 1094661232#0 1094661232#3" >
        <stop busStop="469780509" duration="20" until="102.0"/> <!-- Old Bond Street / Royal Academy -->
    </route>
    <route id="pt_bus_N15:0" edges="1018951411 1018951414 1018951415#0 1018951422#0 1018951417 38748498#0 38748498#2 1018951420 1064360339#0 1018951428#0 1018951429 1018951431 1018951433 399696957 1018945234#0 1018945232 43118736#0 215065448#0 4369048#0 35085535#0 35085535#1 436945579#0 436945579#1 53876136 1065112862 210500025#0 507776882" >
        <stop busStop="4631979552" duration="20" until="128.0"/> <!-- Beak Street / Hamleys Toy Store -->
        <stop busStop="4638405889" duration="20" until="252.0"/> <!-- Piccadilly Circus -->
        <stop busStop="4641072778" duration="20" until="396.0"/> <!-- Haymarket / Jermyn Street -->
    </route>
    <route id="pt_bus_N15:1" edges="183056157#0 4356102 1018924455 1018924456 462641800#0 35085536#0 4376571#0 210447794#3 193420534 436943364#0 1018945233 1018943769 436938229 1018951434 1018951432 1067635382 1018951427#0 1018951427#2 1067635381 1018951424 1018951419 436938220#0 436938220#2 1018951418 1018951421#0 1024601863#0 1018951416 1018951413" >
        <stop busStop="4641072775" duration="20" until="143.0"/> <!-- Regent Street / St James's -->
        <stop busStop="4347844151" duration="20" until="327.0"/> <!-- Piccadilly Circus -->
        <stop busStop="4631979551" duration="20" until="416.0"/> <!-- Beak Street / Hamleys Toy Store -->
    </route>
    <route id="pt_bus_N9:1" edges="183056157#0 4356102 1018924455 1018924456 462641800#0 35085536#0 1135565524#0 1135565525#0 1135566097 1135566098#0 211486426#0 -669229893#0 669229894#0" >
        <stop busStop="4641072776" duration="20" until="228.0"/> <!-- Regent Street / St James's -->
        <stop busStop="6266808744" duration="20" until="388.0"/> <!-- Old Bond Street / Royal Academy -->
    </route>
    <route id="pt_bus_N109:1" edges="1018951411 1018951414 1018951415#0 1018951422#0 1018951417 38748498#0 38748498#2 1018951420 1064360339#0 1018951428#0 1018951429 1018951431 1018951433 399696957 1018945234#0 1018945232 43118736#0 215065448#0 4369048#0 35085535#0 35085535#1 436945579#0 436945579#1 53876136 1065112862 210500025#0 507776882" >
        <stop busStop="4631979550" duration="20" until="63.0"/> <!-- Conduit Street / Hamleys Toy Store -->
        <stop busStop="4638405889" duration="20" until="237.0"/> <!-- Piccadilly Circus -->
        <stop busStop="4641072779" duration="20" until="391.0"/> <!-- Haymarket / Charles II Street -->
    </route>
    <route id="pt_bus_N3:0" edges="183056157#0 4356102 1018924455 1018924456 462641800#0 35085536#0 4376571#0 210447794#3 193420534 436943364#0 1018945233 1018943769 436938229 1018951434 1018951432 1067635382 1018951427#0 1018951427#2 1067635381 1018951424 1018951419 436938220#0 436938220#2 1018951418 1018951421#0 1024601863#0 1018951416 1018951413" >
        <stop busStop="4641072775" duration="20" until="172.0"/> <!-- Regent Street / St James's -->
        <stop busStop="4347844151" duration="20" until="357.0"/> <!-- Piccadilly Circus -->
        <stop busStop="4631979551" duration="20" until="445.0"/> <!-- Beak Street / Hamleys Toy Store -->
    </route>
    <route id="pt_bus_N109:0" edges="183056157#0 4356102 1018924455 1018924456 462641800#0 35085536#0 4376571#0 210447794#3 193420534 436943364#0 1018945233 1018943769 436938229 1018951434 1018951432 1067635382 1018951427#0 1018951427#2 1067635381 1018951424 1018951419 436938220#0 436938220#2 1018951418 1018951421#0 1024601863#0 1018951416 1018951413" >
        <stop busStop="4641072776" duration="20" until="189.0"/> <!-- Regent Street / St James's -->
        <stop busStop="4347844151" duration="20" until="377.0"/> <!-- Piccadilly Circus -->
    </route>
    <route id="pt_bus_N136:0" edges="183056157#0 4356102 1018924455 1018924456 462641800#0 35085536#0 4376571#0 210447794#3 193420534 436943364#0 1018945233 1018943769 436938229 1018951434 1018951432 1067635382 1018951427#0 1018951427#2 1067635381 1018951424 1018951419 436938220#0 436938220#2 1018951418 1018951421#0 1024601863#0 1018951416 1018951413" >
        <stop busStop="4641072776" duration="20" until="198.0"/> <!-- Regent Street / St James's -->
        <stop busStop="4347844151" duration="20" until="318.0"/> <!-- Piccadilly Circus -->
    </route>
    <route id="pt_bus_N136:1" edges="1018951411 1018951414 1018951415#0 1018951422#0 1018951417 38748498#0 38748498#2 1018951420 1064360339#0 1018951428#0 1018951429 1018951431 1018951433 399696957 1018945234#0 1018945232 43118736#0 215065448#0 4369048#0 35085535#0 35085535#1 436945579#0 436945579#1 53876136 1065112862 210500025#0 507776882" >
        <stop busStop="4631979550" duration="20" until="45.0"/> <!-- Conduit Street / Hamleys Toy Store -->
        <stop busStop="4638405889" duration="20" until="173.0"/> <!-- Piccadilly Circus -->
        <stop busStop="4641072779" duration="20" until="327.0"/> <!-- Haymarket / Charles II Street -->
    </route>
    <route id="pt_bus_94:1" edges="1018951411 1018951414 1018951415#0 1018951422#0 1018951417 38748498#0 38748498#2 1018951420 1064360339#0 1018951428#0 1018951429 1018951431 1018951433 399696957 1018945234#0 1018945232 43118736#0 215065448#0 4369048#0 35085535#0 35085535#1 436945579#0 436945579#1 2263976" >
        <stop busStop="4631979550" duration="20" until="46.0"/> <!-- Conduit Street / Hamleys Toy Store -->
        <stop busStop="4638405889" duration="20" until="186.0"/> <!-- Piccadilly Circus -->
    </route>
    <route id="pt_bus_N18:0" edges="1018951411 1018951414 1018951415#0 1018951422#0 1018951417 38748498#0 38748498#2 1018951420 1064360339#0 1018951428#0 1018951429 1018951431 1018951433 399696957 1018945234#0 1018945232 43118736#0 215065448#0 4369048#0 35085535#0 35085535#1 436945579#0 436945579#1 53876136 1065112862 210500025#0 507776882" >
        <stop busStop="4631979552" duration="20" until="118.0"/> <!-- Beak Street / Hamleys Toy Store -->
        <stop busStop="4638405889" duration="20" until="195.0"/> <!-- Piccadilly Circus -->
        <stop busStop="4641072779" duration="20" until="358.0"/> <!-- Haymarket / Charles II Street -->
    </route>
    <route id="pt_bus_N18:1" edges="183056157#0 4356102 1018924455 1018924456 462641800#0 35085536#0 4376571#0 210447794#3 193420534 436943364#0 1018945233 1018943769 436938229 1018951434 1018951432 1067635382 1018951427#0 1018951427#2 1067635381 1018951424 1018951419 436938220#0 436938220#2 1018951418 1018951421#0 1024601863#0 1018951416 1018951413" >
        <stop busStop="4641072776" duration="20" until="186.0"/> <!-- Regent Street / St James's -->
        <stop busStop="4347844151" duration="20" until="375.0"/> <!-- Piccadilly Circus -->
        <stop busStop="4631979549" duration="20" until="489.0"/> <!-- Conduit Street / Hamleys Toy Store -->
    </route>
    <flow id="pt_bus_14:0" type="pt_bus" route="pt_bus_14:0" begin="3.0" end="1003.0" period="600" line="14:0" >
        <param key="name" value="London Buses route 14 → Russell Square"/>
        <param key="completeness" value="0.08"/>
    </flow>
    <flow id="pt_bus_38:1" type="pt_bus" route="pt_bus_38:1" begin="27.0" end="1027.0" period="600" line="38:1" >
        <param key="name" value="London Buses route 38 → Victoria"/>
        <param key="completeness" value="0.01"/>
    </flow>
    <flow id="pt_bus_19:0" type="pt_bus" route="pt_bus_19:0" begin="15.0" end="1015.0" period="600" line="19:0" >
        <param key="name" value="London Buses route 19 → Battersea park, South Side"/>
        <param key="completeness" value="0.09"/>
    </flow>
    <flow id="pt_bus_19:1" type="pt_bus" route="pt_bus_19:1" begin="15.0" end="1015.0" period="600" line="19:1" >
        <param key="name" value="London Buses route 19 → Finsbury Park Station"/>
        <param key="completeness" value="0.07"/>
    </flow>
    <flow id="pt_bus_9:1" type="pt_bus" route="pt_bus_9:1" begin="55.0" end="1055.0" period="600" line="9:1" >
        <param key="name" value="London Buses route 9 → Hammersmith"/>
        <param key="completeness" value="0.12"/>
    </flow>
    <flow id="pt_bus_38:0" type="pt_bus" route="pt_bus_38:0" begin="21.0" end="1021.0" period="600" line="38:0" >
        <param key="name" value="London Buses route 38 → Clapton Pond"/>
        <param key="completeness" value="0.01"/>
    </flow>
    <flow id="pt_bus_6:1" type="pt_bus" route="pt_bus_6:1" begin="131.0" end="1131.0" period="600" line="6:1" >
        <param key="name" value="London Buses route 6 → Willesden, Bus Garage"/>
        <param key="completeness" value="0.08"/>
    </flow>
    <flow id="pt_bus_159:1" type="pt_bus" route="pt_bus_159:1" begin="93.0" end="1093.0" period="600" line="159:1" >
        <param key="name" value="London Buses route 159 → Streatham Station"/>
        <param key="completeness" value="0.08"/>
    </flow>
    <flow id="pt_bus_9:0" type="pt_bus" route="pt_bus_9:0" begin="52.0" end="1052.0" period="600" line="9:0" >
        <param key="name" value="London Buses route 9 → Aldwych"/>
        <param key="completeness" value="0.12"/>
    </flow>
    <flow id="pt_bus_159:0" type="pt_bus" route="pt_bus_159:0" begin="61.0" end="1061.0" period="600" line="159:0" >
        <param key="name" value="London Buses route 159 → Oxford Circus"/>
        <param key="completeness" value="0.08"/>
    </flow>
    <flow id="pt_bus_14:1" type="pt_bus" route="pt_bus_14:1" begin="201.0" end="1201.0" period="600" line="14:1" >
        <param key="name" value="London Buses route 14 → Putney Heath"/>
        <param key="completeness" value="0.11"/>
    </flow>
    <flow id="pt_bus_6:0" type="pt_bus" route="pt_bus_6:0" begin="119.0" end="1119.0" period="600" line="6:0" >
        <param key="name" value="London Buses route 6 → Aldwych"/>
        <param key="completeness" value="0.08"/>
    </flow>
    <flow id="pt_bus_453:1" type="pt_bus" route="pt_bus_453:1" begin="137.0" end="1137.0" period="600" line="453:1" >
        <param key="name" value="London Buses route 453 → Marylebone"/>
        <param key="completeness" value="0.08"/>
    </flow>
    <flow id="pt_bus_453:0" type="pt_bus" route="pt_bus_453:0" begin="132.0" end="1132.0" period="600" line="453:0" >
        <param key="name" value="London Buses route 453 → Deptford Bridge"/>
        <param key="completeness" value="0.08"/>
    </flow>
    <flow id="pt_bus_139:0" type="pt_bus" route="pt_bus_139:0" begin="165.0" end="1165.0" period="600" line="139:0" >
        <param key="name" value="London Buses route 139 → Waterloo"/>
        <param key="completeness" value="0.08"/>
    </flow>
    <flow id="pt_bus_12:0" type="pt_bus" route="pt_bus_12:0" begin="204.0" end="1204.0" period="600" line="12:0" >
        <param key="name" value="London Buses route 12 → Dulwich Library"/>
        <param key="completeness" value="0.09"/>
    </flow>
    <flow id="pt_bus_12:1" type="pt_bus" route="pt_bus_12:1" begin="227.0" end="1227.0" period="600" line="12:1" >
        <param key="name" value="London Buses route 12 → Oxford Circus"/>
        <param key="completeness" value="0.08"/>
    </flow>
    <flow id="pt_bus_94:0" type="pt_bus" route="pt_bus_94:0" begin="253.0" end="1253.0" period="600" line="94:0" >
        <param key="name" value="London Buses route 94 → Acton Green"/>
        <param key="completeness" value="0.09"/>
    </flow>
    <flow id="pt_bus_88:1" type="pt_bus" route="pt_bus_88:1" begin="321.0" end="1321.0" period="600" line="88:1" >
        <param key="name" value="London Buses route 88 → Clapham Common"/>
        <param key="completeness" value="0.06"/>
    </flow>
    <flow id="pt_bus_88:0" type="pt_bus" route="pt_bus_88:0" begin="303.0" end="1303.0" period="600" line="88:0" >
        <param key="name" value="London Buses route 88 → Parliament Hill Fields"/>
        <param key="completeness" value="0.06"/>
    </flow>
    <flow id="pt_bus_N38:1" type="pt_bus" route="pt_bus_N38:1" begin="484.0" end="1484.0" period="600" line="N38:1" >
        <param key="name" value="London Buses route N38 → Victoria"/>
        <param key="completeness" value="0.01"/>
    </flow>
    <flow id="pt_bus_N113:1" type="pt_bus" route="pt_bus_N113:1" begin="331.0" end="1331.0" period="600" line="N113:1" >
        <param key="name" value="London Buses route N113 → Edgware"/>
        <param key="completeness" value="0.06"/>
    </flow>
    <flow id="pt_bus_N113:0" type="pt_bus" route="pt_bus_N113:0" begin="327.0" end="1327.0" period="600" line="N113:0" >