<?xml version="1.0" encoding="UTF-8"?>

<!-- generated on 2023-04-21 09:30:15 by Eclipse SUMO duarouter Version 1.16.0
<configuration xmlns:xsi="http://www.w3.org/2001/XMLSchema-instance" xsi:noNamespaceSchemaLocation="http://sumo.dlr.de/xsd/duarouterConfiguration.xsd">

    <input>
        <net-file value="osm.net.xml.gz"/>
        <route-files value="veh_motorcycle.trips.xml"/>
    </input>

    <output>
        <output-file value="PicadilyMotorcycle.rou.xml"/>
    </output>

    <processing>
        <repair.from value="t"/>
        <repair.to value="t"/>
    </processing>

    <report>
        <ignore-errors value="true"/>
    </report>

</configuration>
-->

<routes xmlns:xsi="http://www.w3.org/2001/XMLSchema-instance" xsi:noNamespaceSchemaLocation="http://sumo.dlr.de/xsd/routes_file.xsd">
    <vType id="motorcycle__motorcycle" vClass="motorcycle"/>
    <vehicle id="motorcycle_0" type="motorcycle__motorcycle" depart="0.00">
        <route edges="-542471105#5 -542471105#2 -542471105#0 542471106 4358454#0 4369048#0 35085535#0 35085535#1 436945579#0 436945579#1 2263976 462641798 1018924455 1018924456 462641800#0 35085536#0 4376571#0"/>
    </vehicle>
    <vehicle id="motorcycle_1" type="motorcycle__motorcycle" depart="3.00">
        <route edges="4360146 4360147 1065112862 210500025#0 2263971#0 603198589 4356104 318825723 -498958813#2 -498958813#0 4358790 4356147 436945579#0 436945579#1 2263976 462641798 1018924455 1018924456 462641800#0 35085536#0 4376571#0 210447794#3 193420534 436943364#0 1018945233 1018943769 436938229 1018951434 1018951432 1067635382 1018951427#0 1018951428#0 1018951429 1018951431 1018951433"/>
    </vehicle>
    <vehicle id="motorcycle_3" type="motorcycle__motorcycle" depart="9.00">
        <route edges="4259271#0 1018951422#0 1018951417 38748498#0 38748498#2 1018951420 1064360339#0 1018951427#2 1067635381 1018951424 1018951419 436938220#0"/>
    </vehicle>
    <vehicle id="motorcycle_4" type="motorcycle__motorcycle" depart="12.00">
        <route edges="-49796159 4358455 -980758926 49796165 -4356148"/>
    </vehicle>
    <vehicle id="motorcycle_5" type="motorcycle__motorcycle" depart="15.00">
        <route edges="4370943 1067635384 1067635385#0 232725809 669229893#0 232725808 1135566870 211557609#0 211557609#1 211557609#2"/>
    </vehicle>
    <vehicle id="motorcycle_6" type="motorcycle__motorcycle" depart="18.00">
        <route edges="4360146 4360147 1065112862 210500025#0 2263971#0 603198589 4356104 318825723 -498958813#2 -498958813#0 4358790 23198010 4356098#1 4253972#0 542471105#3 1094661232#0 1094661232#3 -1065127950"/>
    </vehicle>
    <vehicle id="motorcycle_7" type="motorcycle__motorcycle" depart="21.00">
        <route edges="211557609#1 211557609#2 1135566096#0 1135566095#0 1135566095#1 1135565527#0 1135565526#0 1135565526#1 4376571#0 215065448#0 4369048#0 35085535#0 35085535#1 436945579#0 436945579#1 2263976 462641798 1018924455 1018924456 462641800#0 4358461#0"/>
    </vehicle>
    <vehicle id="motorcycle_9" type="motorcycle__motorcycle" depart="27.00">
        <route edges="498958813#2 -498958813#2 -498958813#0 4356148 -49796165 49796165 -4356148"/>
    </vehicle>
    <vehicle id="motorcycle_10" type="motorcycle__motorcycle" depart="30.00">
        <route edges="-4082560 4082560 -1094661232#2 -542471105#5 -542471105#2 -542471105#0 542471106 4358454#0 4369048#0 35085535#0 35085535#1 436945579#0 436945579#1 2263976 462641798 1018924455 1018924456 462641800#0 35085536#0 4376571#0 210447794#3 193420534 436943364#0 1018945233 1018943769 436938229 1018951434 1018951432 1067635382 1018951427#0 1018951428#0 1018951429 1018951431 1018951433 399696957"/>
    </vehicle>
    <vehicle id="motorcycle_12" type="motorcycle__motorcycle" depart="36.00">
        <route edges="1018951420 1064360339#0 1018951428#0 1018951429 1018951431 1018951433 399696957 1018945234#0 1018945232 43118736#0 210447794#3 1135565524#0 1135565525#0 1135566097 1135566098#0 211486426#0 211557608#0 211557608#2"/>
    </vehicle>
    <vehicle id="motorcycle_13" type="motorcycle__motorcycle" depart="39.00">
        <route edges="-4356148 4358790 4356147 436945579#0 436945579#1 2263976 462641798 1018924455 1018924456 462641800#0 35085536#0 4376571#0 210447794#3 193420534 436943364#0 1018945233 1018943769 436938229 1018951434 1018951432 1067635382 1018951427#0 1018951427#2 1067635381 1018951424"/>
    </vehicle>
    <vehicle id="motorcycle_15" type="motorcycle__motorcycle" depart="45.00">
        <route edges="1018951427#0 1018951427#2"/>
    </vehicle>
    <vehicle id="motorcycle_18" type="motorcycle__motorcycle" depart="54.00">
        <route edges="4370948 -4370948 38310154#1 1135566095#1 1135565527#0 1135565526#0 1135565526#1 193420534 436943364#0 1018945233 4253891 290405994 4253776 673569249 4253790 423007010#2"/>
    </vehicle>
    <vehicle id="motorcycle_21" type="motorcycle__motorcycle" depart="63.00">
        <route edges="-53876143 4356102 1018924455 1018924456 462641800#0 35085536#0 1135565524#0 1135565525#0"/>
    </vehicle>
    <vehicle id="motorcycle_22" type="motorcycle__motorcycle" depart="66.00">
        <route edges="4358441 4360148 -4360148 -4358441 462641800#0 4358421#0 757744789#1 35085535#0 35085535#1 436945579#0 4358431 647037413 659406290 -49796159 4358455"/>
    </vehicle>
    <vehicle id="motorcycle_23" type="motorcycle__motorcycle" depart="69.00">
        <route edges="542471106 4358454#0 4369048#0 35085535#0 35085535#1 436945579#0 436945579#1 2263976 462641798 1018924455 1018924456 462641800#0 4358461#0 4358461#2 4362701#0 211557608#2"/>
    </vehicle>
    <vehicle id="motorcycle_24" type="motorcycle__motorcycle" depart="72.00">
        <route edges="4370889#0 1018951428#0 1018951429 1018951431 1018951433 399696957 1018945234#0 1018945232 43118736#0 215065448#0 4369048#0 35085535#0 35085535#1 436945579#0 436945579#1 53876136 1065112862 210500025#0 2263971#0 603198589 4356104"/>
    </vehicle>
    <vehicle id="motorcycle_25" type="motorcycle__motorcycle" depart="75.00">
        <route edges="1067635385#0 232725809 669229893#0 232725808 1135566870 211557609#0 211557609#1 1135545587 4370889#0 1131262161#0 1044356411 4253812#0 4253812#1"/>
    </vehicle>
    <vehicle id="motorcycle_26" type="motorcycle__motorcycle" depart="78.00">
        <route edges="462641800#0 35085536#0 4376571#0 43486254#0 211487026#0 4376580 542471105#0 542471105#1 542471105#3 68543461#0 -4376570 4376570"/>
    </vehicle>
    <vehicle id="motorcycle_27" type="motorcycle__motorcycle" depart="81.00">
        <route edges="318825723 -498958813#2 -498958813#0 4358790 4356147 436945579#0 436945579#1 2263976 462641798 1018924455 1018924456 462641800#0 35085536#0 4376571#0 210447794#3 193420534 436943364#0 1018945233 4253891 290405994 4253812#0 4253812#1"/>
    </vehicle>
    <vehicle id="motorcycle_28" type="motorcycle__motorcycle" depart="84.00">
        <route edges="-4358441 462641800#0 35085536#0 4376571#0 210447794#3 193420534 436943364#0 1018945233 1018943769 436938229 1018951434 1018951432 1067635382 1018951427#0 1018951428#0 1018951429"/>
    </vehicle>
    <vehicle id="motorcycle_30" type="motorcycle__motorcycle" depart="90.00">
        <route edges="1018945233 1018945234#0 1018945232 43118736#0 43486254#0 211487026#0 4376580 542471105#0 542471105#1 542471105#3 1094661232#0 -4082560 4082560"/>
    </vehicle>
    <vehicle id="motorcycle_31" type="motorcycle__motorcycle" depart="93.00">
        <route edges="4358421#0 757744789#1 35085535#0 35085535#1 436945579#0 436945579#1 53876136 1065112862 210500025#0 2263971#0 603198589 4356104"/>
    </vehicle>
    <vehicle id="motorcycle_32" type="motorcycle__motorcycle" depart="96.00">
        <route edges="1135566097 1135566098#0 211486426#0 232725808 1135566870 211557609#0 211557609#1 211557609#2 1135566096#0 1135566095#0 1135566095#1 1135565527#0 1135565526#0 1135565526#1 4376571#0 215065448#0"/>
    </vehicle>
    <vehicle id="motorcycle_33" type="motorcycle__motorcycle" depart="99.00">
        <route edges="325008374#0 -542471105#2 -542471105#0 542471106 4358454#0 4369048#0"/>
    </vehicle>
    <vehicle id="motorcycle_34" type="motorcycle__motorcycle" depart="102.00">
        <route edges="35085536#0 1135565524#0 1135565525#0 1135566097 1135566098#0 211486426#0"/>
    </vehicle>
    <vehicle id="motorcycle_36" type="motorcycle__motorcycle" depart="108.00">
        <route edges="-4358462#1 4358462#1 1093694666 -53876143 4356102 1018924455 1018924454 4358441"/>
    </vehicle>
    <vehicle id="motorcycle_37" type="motorcycle__motorcycle" depart="111.00">
        <route edges="673569250 4253785 4253812#1 4253812#2"/>
    </vehicle>
    <vehicle id="motorcycle_39" type="motorcycle__motorcycle" depart="117.00">
        <route edges="290405994 4253812#0 4253894 4254981 4376580 542471105#0 542471107#0 4370987 673956940"/>
    </vehicle>
    <vehicle id="motorcycle_40" type="motorcycle__motorcycle" depart="120.00">
        <route edges="4360148 -4360148 -4358441 462641800#0 35085536#0 4376571#0 210447794#3 193420534 436943364#0 1018945233 1018943769 436938229 1018951434 1018951432 1067635382 1018951427#0 1018951428#0 1018951429 1018951431 1018951433 399696957"/>
    </vehicle>
    <vehicle id="motorcycle_42" type="motorcycle__motorcycle" depart="126.00">
        <route edges="35085535#0 35085535#1 436945579#0 4358431 647037413 659406290"/>
    </vehicle>
    <vehicle id="motorcycle_45" type="motorcycle__motorcycle" depart="135.00">
        <route edges="603198589 4356104 318825723 -498958813#2 -498958813#0 4358790 23198010 4356098#1 4253972#0 542471105#3 1094661232#0 -1094661232#2"/>
    </vehicle>
    <vehicle id="motorcycle_46" type="motorcycle__motorcycle" depart="138.00">
        <route edges="4362732 -4362732 4358462#1 1093694666 -53876143 4356102 1018924455 1018924456 462641800#0 35085536#0 1135565524#0 1135565525#0 1135566097 1135566098#0 211486426#0 232725808 1135566870 211557609#0 211557609#1 211557609#2 1135566096#0 1135566095#0 -38310154#1 4370948"/>
    </vehicle>
    <vehicle id="motorcycle_47" type="motorcycle__motorcycle" depart="141.00">
        <route edges="462641800#0 4358421#0 757744789#1 35085535#0 35085535#1 436945579#0 4358431 647037413 -498958813#2 -498958813#0 4358790"/>
    </vehicle>
    <vehicle id="motorcycle_48" type="motorcycle__motorcycle" depart="144.00">
        <route edges="436938229 1018951434 1018951432 1067635382 1018951427#0 1018951428#0 1018951429 1018951431 1018951433 399696957 1018945234#0 1018945232 43118736#0 215065448#0 4369048#0 35085535#0 35085535#1 436945579#0 436945579#1 2263976 462641798 1018924455 1018924456 462641800#0 35085536#0"/>
    </vehicle>
    <vehicle id="motorcycle_49" type="motorcycle__motorcycle" depart="147.00">
        <route edges="423007010#1 423007010#2 262200662#0 38748498#2 1018951420 1064360339#0 1018951428#0 1018951429 1018951431 1018951433 399696957 1018945234#0 1018945232 43118736#0 210447794#3 1135565524#0 1135565525#0 1135566097 1135566098#0 211486426#0 232725808 1135566870 211557609#0"/>
    </vehicle>
    <vehicle id="motorcycle_50" type="motorcycle__motorcycle" depart="150.00">
        <route edges="-4362732 4358462#1 1093694666 -53876143 4356102 1018924455 1018924456 462641800#0"/>
    </vehicle>
    <vehicle id="motorcycle_51" type="motorcycle__motorcycle" depart="153.00">
        <route edges="423007010#2 262200662#0 436938220#2 1018951418"/>
    </vehicle>
    <vehicle id="motorcycle_52" type="motorcycle__motorcycle" depart="156.00">
        <route edges="318825723 -498958813#2 -498958813#0 4358790 23198010 4356098#1 4253972#0 -542471105#2 542471107#0 542471107#1 542471107#2 262200663#1 262200663#2 262200663#3"/>
    </vehicle>
    <vehicle id="motorcycle_53" type="motorcycle__motorcycle" depart="159.00">
        <route edges="1135565527#0"/>
    </vehicle>
    <vehicle id="motorcycle_54" type="motorcycle__motorcycle" depart="162.00">
        <route edges="38748498#0 38748498#2 1018951420 1064360339#0 1131262161#0 1044356411 4253812#0 4253812#1 4253812#2 4253812#3 4254010#0"/>
    </vehicle>
    <vehicle id="motorcycle_55" type="motorcycle__motorcycle" depart="165.00">
        <route edges="4253830 262200662#0 38748498#2 1018951420 1064360339#0 1018951428#0 1018951429 1018951431 1018951433 399696957 1018945234#0 1018945232 43118736#0 210447794#3 1135565524#0 1135565525#0 1135566097 1135566098#0 211486426#0 232725808"/>
    </vehicle>
    <vehicle id="motorcycle_56" type="motorcycle__motorcycle" depart="168.00">
        <route edges="-4356148 4358790 4356147 436945579#0 436945579#1 2263976 462641798 1018924455 1018924456 462641800#0 35085536#0 4376571#0 210447794#3 193420534 436943364#0 1018945233 1018943769 436938229 1018951434 1018951432 1067635382 1018951427#0 1018951427#2"/>
    </vehicle>
    <vehicle id="motorcycle_57" type="motorcycle__motorcycle" depart="171.00">
        <route edges="1018945234#0 1018945232 43118736#0 210447794#3 193420534 436943364#0 1018945233 4253891 290405994 4253812#0"/>
    </vehicle>
    <vehicle id="motorcycle_60" type="motorcycle__motorcycle" depart="180.00">
        <route edges="1018951432 1067635382 1018951427#0 1018951428#0 1018951429 1018951431 1018951433 399696957 1018945234#0 1018945232 43118736#0 215065448#0 4369048#0 35085535#0 35085535#1 436945579#0 436945579#1 53876136 1065112862 210500025#0 2263971#0 4360146 -4373994 4373994"/>
    </vehicle>
    <vehicle id="motorcycle_61" type="motorcycle__motorcycle" depart="183.00">
        <route edges="4356098#0 4356098#1 4253972#0 542471105#3 68543461#0 -4376570"/>
    </vehicle>
    <vehicle id="motorcycle_62" type="motorcycle__motorcycle" depart="186.00">
        <route edges="-38310154#1"/>
    </vehicle>
    <vehicle id="motorcycle_63" type="motorcycle__motorcycle" depart="189.00">
        <route edges="4358790 4356147 436945579#0 436945579#1 2263976 462641798 1018924455 1018924456 462641800#0 35085536#0 4376571#0 210447794#3 193420534 436943364#0 1018945233 1018943769 436938229 1018951434 1018951432"/>
    </vehicle>
    <vehicle id="motorcycle_64" type="motorcycle__motorcycle" depart="192.00">
        <route edges="-498958813#2 -498958813#0 4358790 4356147 436945579#0 436945579#1 2263976 462641798 1018924455 1018924456 462641800#0 35085536#0 4376571#0 210447794#3 193420534 436943364#0 1018945233 4253891 290405994 4253812#0 4253812#1 4253812#2 4253812#3 4254010#0"/>
    </vehicle>
    <vehicle id="motorcycle_65" type="motorcycle__motorcycle" depart="195.00">
        <route edges="1135565526#0 1135565526#1 4376571#0 43486254#0 211487026#0 4376580 542471105#0 542471107#0 542471107#1 -4370988"/>
    </vehicle>
    <vehicle id="motorcycle_66" type="motorcycle__motorcycle" depart="198.00">
        <route edges="1018924456 462641800#0 35085536#0 1135565524#0 1135565525#0 1135566097 1135566098#0 211486426#0 232725808 1135566870 211557609#0 211557609#1 211557609#2 1135566096#0 1135566095#0 -38310154#1 38310154#1"/>
    </vehicle>
    <vehicle id="motorcycle_67" type="motorcycle__motorcycle" depart="201.00">
        <route edges="1018945232 43118736#0 210447794#3 193420534 436943364#0 1018945233 4253891 290405994 4253776 673569249 4253790 423007010#2 262200662#0 38748498#2 1018951420 1064360339#0"/>
    </vehicle>
    <vehicle id="motorcycle_68" type="motorcycle__motorcycle" depart="204.00">
        <route edges="4358431 4358430 4356147 436945579#0 436945579#1 2263976 462641798 1018924455 1018924456 462641800#0 35085536#0 1135565524#0 1135565525#0 1135566097 1135566098#0 211486426#0 232725808"/>
    </vehicle>
    <vehicle id="motorcycle_69" type="motorcycle__motorcycle" depart="207.00">
        <route edges="1131262161#0 1044356411 4253812#0 4253812#1 4253812#2 4253812#3 262200663#0 262200663#1"/>
    </vehicle>
    <vehicle id="motorcycle_70" type="motorcycle__motorcycle" depart="210.00">
        <route edges="-4082560 4082560 -1094661232#2 -542471105#5 -542471105#2 -542471105#0 542471106 4358454#0 4369048#0 35085535#0 35085535#1 436945579#0 436945579#1 2263976 462641798 1018924455 1018924456 462641800#0 35085536#0 4376571#0 210447794#3"/>
    </vehicle>
    <vehicle id="motorcycle_72" type="motorcycle__motorcycle" depart="216.00">
        <route edges="-498958813#0 4358790 4356147 436945579#0 436945579#1 53876136"/>
    </vehicle>
    <vehicle id="motorcycle_73" type="motorcycle__motorcycle" depart="219.00">
        <route edges="325008374#0 -542471105#2 -542471105#0 542471106 4358454#0 4369048#0 35085535#0 35085535#1 436945579#0 436945579#1 2263976 462641798 1018924455 1018924456 462641800#0 35085536#0 4376571#0 210447794#3 193420534 436943364#0 1018945233 4253891 290405994 4253776 673569249 4253790 423007010#2 262200662#0 38748498#2 1018951420"/>
    </vehicle>
    <vehicle id="motorcycle_75" type="motorcycle__motorcycle" depart="225.00">
        <route edges="-4082552"/>
    </vehicle>
    <vehicle id="motorcycle_76" type="motorcycle__motorcycle" depart="228.00">
        <route edges="-980758926 49796165 -4356148 4358790 4356147 436945579#0 436945579#1 2263976 462641798 1018924455 1018924456 462641800#0 4358461#0"/>
    </vehicle>
    <vehicle id="motorcycle_77" type="motorcycle__motorcycle" depart="231.00">
        <route edges="1018924456 462641800#0 4358421#0 757744789#1 35085535#0 35085535#1 436945579#0 436945579#1 2263976 462641798 1018924455 1018924454 4358441"/>
    </vehicle>
    <vehicle id="motorcycle_81" type="motorcycle__motorcycle" depart="243.00">
        <route edges="1018951422#0 1018951417 38748498#0 38748498#2 1018951420 1064360339#0 1018951428#0 1018951429 1018951431 1018951433 399696957 1018945234#0 1018945232 43118736#0 215065448#0 4369048#0 35085535#0 35085535#1 436945579#0 436945579#1 53876136 1065112862 43491848#0"/>
    </vehicle>
    <vehicle id="motorcycle_84" type="motorcycle__motorcycle" depart="252.00">
        <route edges="-4362732 4358462#1 1093694666"/>
    </vehicle>
    <vehicle id="motorcycle_85" type="motorcycle__motorcycle" depart="255.00">
        <route edges="659406290 -49796159 4358455 -980758926 49796165"/>
    </vehicle>
    <vehicle id="motorcycle_86" type="motorcycle__motorcycle" depart="258.00">
        <route edges="1093694666 -53876143 4356102 1018924455 1018924456 462641800#0 35085536#0 4376571#0 43486254#0 211487026#0 4376580"/>
    </vehicle>
    <vehicle id="motorcycle_88" type="motorcycle__motorcycle" depart="264.00">
        <route edges="4358461#2 4358462#0 4358462#1 1093694666 -53876143 4356102 1018924455 1018924456 462641800#0 35085536#0 1135565524#0 1135565525#0 1135566097 1135566098#0 211486426#0 211557608#0"/>
    </vehicle>
    <vehicle id="motorcycle_89" type="motorcycle__motorcycle" depart="267.00">
        <route edges="1018951431 1018951433 399696957 1018945234#0 1018945232 43118736#0 43486254#0 211487026#0 4376580 542471105#0 542471105#1 542471105#3 1094661232#0 -1094661232#2"/>
    </vehicle>
    <vehicle id="motorcycle_90" type="motorcycle__motorcycle" depart="270.00">
        <route edges="462641798 1018924455 1018924456 462641800#0 4358461#0 4358461#2 4358462#0 -4358462#0"/>
    </vehicle>
    <vehicle id="motorcycle_91" type="motorcycle__motorcycle" depart="273.00">
        <route edges="436945579#1 2263976 462641798 1018924455 1018924456 462641800#0 35085536#0 1135565524#0 1135565525#0 1135566097 1135566098#0 211486426#0 -669229893#0 669229894#0"/>
    </vehicle>
    <vehicle id="motorcycle_92" type="motorcycle__motorcycle" depart="276.00">
        <route edges="4253776 673569249 4253790 423007010#2 262200662#0 38748498#2 1018951420 1064360339#0 1018951428#0 1018951429 1018951431 1018951433 399696957 1018945234#0 1018945232 43118736#0 210447794#3 193420534 436943364#0 1018945233"/>
    </vehicle>
    <vehicle id="motorcycle_93" type="motorcycle__motorcycle" depart="279.00">
        <route edges="4376571#0 210447794#3 193420534 436943364#0 1018945233 4253891 290405994 4253776 673569249"/>
    </vehicle>
    <vehicle id="motorcycle_94" type="motorcycle__motorcycle" depart="282.00">
        <route edges="4358421#0 757744789#1 35085535#0"/>
    </vehicle>
    <vehicle id="motorcycle_95" type="motorcycle__motorcycle" depart="285.00">
        <route edges="1135566098#0 211486426#0 232725808 1135566870 211557609#0 211557609#1 211557609#2 1135566096#0 1135566095#0 1135566095#1 1135565527#0"/>
    </vehicle>
    <vehicle id="motorcycle_97" type="motorcycle__motorcycle" depart="291.00">
        <route edges="211557607#0 232725809 669229893#0 232725808 1135566870 211557609#0 211557609#1 1135545587 4370889#0 1018951427#2 1067635381 1018951424 1018951419 436938220#0 436938220#2 1018951418 1018951421#0 1024601863#0 1018951416"/>
    </vehicle>
    <vehicle id="motorcycle_98" type="motorcycle__motorcycle" depart="294.00">
        <route edges="-498958813#0 4358790 4356147 436945579#0 436945579#1 2263976 462641798 1018924455 1018924456 462641800#0 4358461#0 4358461#2 4358462#0 4358462#1 1093694666 -53876143 4356102"/>
    </vehicle>
    <vehicle id="motorcycle_99" type="motorcycle__motorcycle" depart="297.00">
        <route edges="1067635384 1067635385#0 232725809 669229893#0 232725808 1135566870 211557609#0 211557609#1 211557609#2 1135566096#0 1135566095#0 1135566095#1 1135565527#0 1135565526#0 1135565526#1 4376571#0 215065448#0 4356098#0 4356098#1 4356098#2 1131283657#0 498958813#0 498958813#2 659406290 -49796159 318825723"/>
    </vehicle>
    <vehicle id="motorcycle_100" type="motorcycle__motorcycle" depart="300.00">
        <route edges="1131262161#0 1044356411 4253812#0 4253894 4254981 4358454#0 4369048#0 35085535#0 35085535#1 436945579#0 436945579#1 2263976 462641798 1018924455 1018924456 462641800#0"/>
    </vehicle>
    <vehicle id="motorcycle_102" type="motorcycle__motorcycle" depart="306.00">
        <route edges="1018951417 38748498#0 38748498#2 1018951420 1064360339#0 1018951428#0 1018951429 1018951431 1018951433 399696957 1018945234#0 1018945232 43118736#0 210447794#3 1135565524#0"/>
    </vehicle>
    <vehicle id="motorcycle_104" type="motorcycle__motorcycle" depart="312.00">
        <route edges="1135565524#0 1135565525#0 1135566097 1135566098#0 211486426#0 232725808 1135566870 211557609#0 211557609#1 1135545587 4370889#0 1018951427#2 1067635381 1018951424 1018951419 436938220#0 436938220#2 1018951418 1018951421#0"/>
    </vehicle>
    <vehicle id="motorcycle_105" type="motorcycle__motorcycle" depart="315.00">
        <route edges="4356098#1 4356098#2 1131283657#0 4358790 4356147 436945579#0 436945579#1 53876136 1065112862 210500025#0 2263971#0 4360146 -4373994 4373994"/>
    </vehicle>
    <vehicle id="motorcycle_106" type="motorcycle__motorcycle" depart="318.00">
        <route edges="542471106 4358454#0 4369048#0 35085535#0 35085535#1 436945579#0 436945579#1 2263976 462641798 1018924455 1018924456 462641800#0 35085536#0 1135565524#0 1135565525#0 1135566097 1135566098#0 211486426#0 232725808 1135566870 211557609#0 211557609#1 211557609#2 1135566096#0 1135566095#0 1135566095#1 1135565527#0 1135565526#0 1135565526#1"/>
    </vehicle>
    <vehicle id="motorcycle_107" type="motorcycle__motorcycle" depart="321.00">
        <route edges="462641800#0 4358421#0"/>
    </vehicle>
    <vehicle id="motorcycle_109" type="motorcycle__motorcycle" depart="327.00">
        <route edges="1018951427#0 1018951428#0 1018951429 1018951431 1018951433 399696957 1018945234#0 1018945232 43118736#0 215065448#0 4369048#0 35085535#0 35085535#1 436945579#0 436945579#1 2263976 462641798 1018924455 1018924456 462641800#0 4358461#0 4358461#2"/>
    </vehicle>
    <vehicle id="motorcycle_111" type="motorcycle__motorcycle" depart="333.00">
        <route edges="53876136 1065112862 210500025#0 2263971#0 603198589 4356104 318825723 -498958813#2 -498958813#0 4358790 4356147 436945579#0 436945579#1 2263976 462641798 1018924455 1018924456 462641800#0 35085536#0 4376571#0 210447794#3 193420534 436943364#0 1018945233 1018943769 436938229 1018951434 1018951432 1067635382 1018951427#0 1018951427#2 1067635381 1018951424 1018951419 436938220#0 436938220#2 1018951418 1018951421#0"/>
    </vehicle>
    <vehicle id="motorcycle_112" type="motorcycle__motorcycle" depart="336.00">
        <route edges="4358790 4356147 436945579#0 436945579#1 2263976 462641798 1018924455 1018924456 462641800#0 35085536#0 4376571#0 210447794#3 193420534 436943364#0 1018945233 1018943769 436938229 1018951434 1018951432 1067635382 1018951427#0 1131262161#0 4253830"/>
    </vehicle>
    <vehicle id="motorcycle_113" type="motorcycle__motorcycle" depart="339.00">
        <route edges="4370948 -4370948 38310154#1 1135566095#1 1135565527#0 1135565526#0 1135565526#1 1135565524#0 1135565525#0 1135566097 1135566098#0"/>
    </vehicle>
    <vehicle id="motorcycle_115" type="motorcycle__motorcycle" depart="345.00">
        <route edges="4376571#0 210447794#3 193420534 436943364#0 1018945233 1018943769 436938229 1018951434 1018951432 1067635382 1018951427#0 1131262161#0 4253830"/>
    </vehicle>
    <vehicle id="motorcycle_118" type="motorcycle__motorcycle" depart="354.00">
        <route edges="-498958813#0 4358790 4356147 436945579#0 436945579#1 2263976 462641798 1018924455 1018924456 462641800#0 4358461#0 4358461#2 4358462#0 -4358462#0"/>
    </vehicle>
    <vehicle id="motorcycle_119" type="motorcycle__motorcycle" depart="357.00">
        <route edges="-4370989 4370989 4370987 673956940 325008374#0 -542471105#2 -542471105#0 542471106 4358454#0 4369048#0 35085535#0 35085535#1 436945579#0 436945579#1 2263976 462641798"/>
    </vehicle>
    <vehicle id="motorcycle_120" type="motorcycle__motorcycle" depart="360.00">
        <route edges="4369048#0 35085535#0 35085535#1 436945579#0 4358431 4358430 23198010 4356098#1 4253972#0 -542471105#2 542471107#0 4370987"/>
    </vehicle>
    <vehicle id="motorcycle_121" type="motorcycle__motorcycle" depart="363.00">
        <route edges="1135565525#0 1135566097 1135566098#0 211486426#0 232725808 1135566870 211557609#0 211557609#1 1135545587 4370889#0 1131262161#0 1044356411 4253812#0 4253894"/>
    </vehicle>
    <vehicle id="motorcycle_122" type="motorcycle__motorcycle" depart="366.00">
        <route edges="4362731 4358462#1 1093694666 -53876143 4356102 1018924455 1018924456 462641800#0 35085536#0 4376571#0 210447794#3 193420534"/>
    </vehicle>
  </routes>