<?xml version="1.0" encoding="UTF-8"?>

<!-- generated on 2023-04-21 09:30:14.841904 by randomTrips.py v1_16_0+1095-e5f7288d143
<configuration>
    <fringe-factor value="0.95"/>
    <net-file value="osm.net.xml.gz"/>
    <period value="3.0"/>
    <seed value="1"/>
    <output-trip-file value="veh_motorcycle.trips.xml"/>
    <prefix value="motorcycle_"/>
    <vclass value="motorcycle"/>
    <vehicle-class value="motorcycle"/>
</configuration>
-->

<routes xmlns:xsi="http://www.w3.org/2001/XMLSchema-instance" xsi:noNamespaceSchemaLocation="http://sumo.dlr.de/xsd/routes_file.xsd">
    <vType id="motorcycle__motorcycle" vClass="motorcycle"/>
    <trip id="motorcycle_0" depart="0.00" from="-542471105#5" to="4376571#0" type="motorcycle__motorcycle"/>
    <trip id="motorcycle_1" depart="3.00" from="4360146" to="1018951433" type="motorcycle__motorcycle"/>
    <trip id="motorcycle_2" depart="6.00" from="262200663#2" to="2263976" type="motorcycle__motorcycle"/>
    <trip id="motorcycle_3" depart="9.00" from="4259271#0" to="436938220#0" type="motorcycle__motorcycle"/>
    <trip id="motorcycle_4" depart="12.00" from="-49796159" to="-4356148" type="motorcycle__motorcycle"/>
    <trip id="motorcycle_5" depart="15.00" from="4370943" to="211557609#2" type="motorcycle__motorcycle"/>
    <trip id="motorcycle_6" depart="18.00" from="4360146" to="-1065127950" type="motorcycle__motorcycle"/>
    <trip id="motorcycle_7" depart="21.00" from="211557609#1" to="4358461#0" type="motorcycle__motorcycle"/>
    <trip id="motorcycle_8" depart="24.00" from="1018951424" to="603198589" type="motorcycle__motorcycle"/>
    <trip id="motorcycle_9" depart="27.00" from="498958813#2" to="-4356148" type="motorcycle__motorcycle"/>
    <trip id="motorcycle_10" depart="30.00" from="-4082560" to="399696957" type="motorcycle__motorcycle"/>
    <trip id="motorcycle_11" depart="33.00" from="542471107#0" to="210447794#0" type="motorcycle__motorcycle"/>
    <trip id="motorcycle_12" depart="36.00" from="1018951420" to="211557608#2" type="motorcycle__motorcycle"/>
    <trip id="motorcycle_13" depart="39.00" from="-4356148" to="1018951424" type="motorcycle__motorcycle"/>
    <trip id="motorcycle_14" depart="42.00" from="211557608#0" to="297206317#1" type="motorcycle__motorcycle"/>
    <trip id="motorcycle_15" depart="45.00" from="1018951427#0" to="1018951427#2" type="motorcycle__motorcycle"/>
    <trip id="motorcycle_16" depart="48.00" from="1018951421#0" to="232725809" type="motorcycle__motorcycle"/>
    <trip id="motorcycle_17" depart="51.00" from="1067635381" to="-4082552" type="motorcycle__motorcycle"/>
    <trip id="motorcycle_18" depart="54.00" from="4370948" to="423007010#2" type="motorcycle__motorcycle"/>
    <trip id="motorcycle_19" depart="57.00" from="4254010#0" to="1018951415#0" type="motorcycle__motorcycle"/>
    <trip id="motorcycle_20" depart="60.00" from="68543461#0" to="4480717#0" type="motorcycle__motorcycle"/>
    <trip id="motorcycle_21" depart="63.00" from="-53876143" to="1135565525#0" type="motorcycle__motorcycle"/>
    <trip id="motorcycle_22" depart="66.00" from="4358441" to="4358455" type="motorcycle__motorcycle"/>
    <trip id="motorcycle_23" depart="69.00" from="542471106" to="211557608#2" type="motorcycle__motorcycle"/>
    <trip id="motorcycle_24" depart="72.00" from="4370889#0" to="4356104" type="motorcycle__motorcycle"/>
    <trip id="motorcycle_25" depart="75.00" from="1067635385#0" to="4253812#1" type="motorcycle__motorcycle"/>
    <trip id="motorcycle_26" depart="78.00" from="462641800#0" to="4376570" type="motorcycle__motorcycle"/>
    <trip id="motorcycle_27" depart="81.00" from="318825723" to="4253812#1" type="motorcycle__motorcycle"/>
    <trip id="motorcycle_28" depart="84.00" from="-4358441" to="1018951429" type="motorcycle__motorcycle"/>
    <trip id="motorcycle_29" depart="87.00" from="436938220#0" to="211490174" type="motorcycle__motorcycle"/>
    <trip id="motorcycle_30" depart="90.00" from="1018945233" to="4082560" type="motorcycle__motorcycle"/>
    <trip id="motorcycle_31" depart="93.00" from="4358421#0" to="4356104" type="motorcycle__motorcycle"/>
    <trip id="motorcycle_32" depart="96.00" from="1135566097" to="215065448#0" type="motorcycle__motorcycle"/>
    <trip id="motorcycle_33" depart="99.00" from="325008374#0" to="4369048#0" type="motorcycle__motorcycle"/>
    <trip id="motorcycle_34" depart="102.00" from="35085536#0" to="211486426#0" type="motorcycle__motorcycle"/>
    <trip id="motorcycle_35" depart="105.00" from="262200663#1" to="-4356148" type="motorcycle__motorcycle"/>
    <trip id="motorcycle_36" depart="108.00" from="-4358462#1" to="4358441" type="motorcycle__motorcycle"/>
    <trip id="motorcycle_37" depart="111.00" from="673569250" to="4253812#2" type="motorcycle__motorcycle"/>
    <trip id="motorcycle_38" depart="114.00" from="18791974" to="1018945233" type="motorcycle__motorcycle"/>
    <trip id="motorcycle_39" depart="117.00" from="290405994" to="673956940" type="motorcycle__motorcycle"/>
    <trip id="motorcycle_40" depart="120.00" from="4360148" to="399696957" type="motorcycle__motorcycle"/>
    <trip id="motorcycle_41" depart="123.00" from="4376570" to="1018951427#2" type="motorcycle__motorcycle"/>
    <trip id="motorcycle_42" depart="126.00" from="35085535#0" to="659406290" type="motorcycle__motorcycle"/>
    <trip id="motorcycle_43" depart="129.00" from="4253785" to="232725809" type="motorcycle__motorcycle"/>
    <trip id="motorcycle_44" depart="132.00" from="1024601863#0" to="4082560" type="motorcycle__motorcycle"/>
    <trip id="motorcycle_45" depart="135.00" from="603198589" to="-1094661232#2" type="motorcycle__motorcycle"/>
    <trip id="motorcycle_46" depart="138.00" from="4362732" to="4370948" type="motorcycle__motorcycle"/>
    <trip id="motorcycle_47" depart="141.00" from="462641800#0" to="4358790" type="motorcycle__motorcycle"/>
    <trip id="motorcycle_48" depart="144.00" from="436938229" to="35085536#0" type="motorcycle__motorcycle"/>
    <trip id="motorcycle_49" depart="147.00" from="423007010#1" to="211557609#0" type="motorcycle__motorcycle"/>
    <trip id="motorcycle_50" depart="150.00" from="-4362732" to="462641800#0" type="motorcycle__motorcycle"/>
    <trip id="motorcycle_51" depart="153.00" from="423007010#2" to="1018951418" type="motorcycle__motorcycle"/>
    <trip id="motorcycle_52" depart="156.00" from="318825723" to="262200663#3" type="motorcycle__motorcycle"/>
    <trip id="motorcycle_53" depart="159.00" from="1135565527#0" to="1135565527#0" type="motorcycle__motorcycle"/>
    <trip id="motorcycle_54" depart="162.00" from="38748498#0" to="4254010#0" type="motorcycle__motorcycle"/>
    <trip id="motorcycle_55" depart="165.00" from="4253830" to="232725808" type="motorcycle__motorcycle"/>
    <trip id="motorcycle_56" depart="168.00" from="-4356148" to="1018951427#2" type="motorcycle__motorcycle"/>
    <trip id="motorcycle_57" depart="171.00" from="1018945234#0" to="4253812#0" type="motorcycle__motorcycle"/>
    <trip id="motorcycle_58" depart="174.00" from="4376570" to="436943364#0" type="motorcycle__motorcycle"/>
    <trip id="motorcycle_59" depart="177.00" from="436938220#0" to="4370889#0" type="motorcycle__motorcycle"/>
    <trip id="motorcycle_60" depart="180.00" from="1018951432" to="4373994" type="motorcycle__motorcycle"/>
    <trip id="motorcycle_61" depart="183.00" from="4356098#0" to="-4376570" type="motorcycle__motorcycle"/>
    <trip id="motorcycle_62" depart="186.00" from="-38310154#1" to="-38310154#1" type="motorcycle__motorcycle"/>
    <trip id="motorcycle_63" depart="189.00" from="4358790" to="1018951432" type="motorcycle__motorcycle"/>
    <trip id="motorcycle_64" depart="192.00" from="-498958813#2" to="4254010#0" type="motorcycle__motorcycle"/>
    <trip id="motorcycle_65" depart="195.00" from="1135565526#0" to="-4370988" type="motorcycle__motorcycle"/>
    <trip id="motorcycle_66" depart="198.00" from="1018924456" to="38310154#1" type="motorcycle__motorcycle"/>
    <trip id="motorcycle_67" depart="201.00" from="1018945232" to="1064360339#0" type="motorcycle__motorcycle"/>
    <trip id="motorcycle_68" depart="204.00" from="4358431" to="232725808" type="motorcycle__motorcycle"/>
    <trip id="motorcycle_69" depart="207.00" from="1131262161#0" to="262200663#1" type="motorcycle__motorcycle"/>
    <trip id="motorcycle_70" depart="210.00" from="-4082560" to="210447794#3" type="motorcycle__motorcycle"/>
    <trip id="motorcycle_71" depart="213.00" from="211489808#0" to="1018951415#0" type="motorcycle__motorcycle"/>
    <trip id="motorcycle_72" depart="216.00" from="-498958813#0" to="53876136" type="motorcycle__motorcycle"/>
    <trip id="motorcycle_73" depart="219.00" from="325008374#0" to="1018951420" type="motorcycle__motorcycle"/>
    <trip id="motorcycle_74" depart="222.00" from="4253812#2" to="4370889#0" type="motorcycle__motorcycle"/>
    <trip id="motorcycle_75" depart="225.00" from="-4082552" to="-4082552" type="motorcycle__motorcycle"/>
    <trip id="motorcycle_76" depart="228.00" from="-980758926" to="4358461#0" type="motorcycle__motorcycle"/>
    <trip id="motorcycle_77" depart="231.00" from="1018924456" to="4358441" type="motorcycle__motorcycle"/>
    <trip id="motorcycle_78" depart="234.00" from="4356098#1" to="4082552" type="motorcycle__motorcycle"/>
    <trip id="motorcycle_79" depart="237.00" from="1018951421#0" to="673569250" type="motorcycle__motorcycle"/>
    <trip id="motorcycle_80" depart="240.00" from="436938220#0" to="35085536#0" type="motorcycle__motorcycle"/>
    <trip id="motorcycle_81" depart="243.00" from="1018951422#0" to="43491848#0" type="motorcycle__motorcycle"/>
    <trip id="motorcycle_82" depart="246.00" from="193420534" to="4253792" type="motorcycle__motorcycle"/>
    <trip id="motorcycle_83" depart="249.00" from="1131262158" to="4254010#3" type="motorcycle__motorcycle"/>
    <trip id="motorcycle_84" depart="252.00" from="-4362732" to="1093694666" type="motorcycle__motorcycle"/>
    <trip id="motorcycle_85" depart="255.00" from="659406290" to="49796165" type="motorcycle__motorcycle"/>
    <trip id="motorcycle_86" depart="258.00" from="1093694666" to="4376580" type="motorcycle__motorcycle"/>
    <trip id="motorcycle_87" depart="261.00" from="1094661232#0" to="570827698" type="motorcycle__motorcycle"/>
    <trip id="motorcycle_88" depart="264.00" from="4358461#2" to="211557608#0" type="motorcycle__motorcycle"/>
    <trip id="motorcycle_89" depart="267.00" from="1018951431" to="-1094661232#2" type="motorcycle__motorcycle"/>
    <trip id="motorcycle_90" depart="270.00" from="462641798" to="-4358462#0" type="motorcycle__motorcycle"/>
    <trip id="motorcycle_91" depart="273.00" from="436945579#1" to="669229894#0" type="motorcycle__motorcycle"/>
    <trip id="motorcycle_92" depart="276.00" from="4253776" to="1018945233" type="motorcycle__motorcycle"/>
    <trip id="motorcycle_93" depart="279.00" from="4376571#0" to="673569249" type="motorcycle__motorcycle"/>
    <trip id="motorcycle_94" depart="282.00" from="4358421#0" to="35085535#0" type="motorcycle__motorcycle"/>
    <trip id="motorcycle_95" depart="285.00" from="1135566098#0" to="1135565527#0" type="motorcycle__motorcycle"/>
    <trip id="motorcycle_96" depart="288.00" from="1018951418" to="4356104" type="motorcycle__motorcycle"/>
    <trip id="motorcycle_97" depart="291.00" from="211557607#0" to="1018951416" type="motorcycle__motorcycle"/>
    <trip id="motorcycle_98" depart="294.00" from="-498958813#0" to="4356102" type="motorcycle__motorcycle"/>
    <trip id="motorcycle_99" depart="297.00" from="1067635384" to="318825723" type="motorcycle__motorcycle"/>
    <trip id="motorcycle_100" depart="300.00" from="1131262161#0" to="462641800#0" type="motorcycle__motorcycle"/>
    <trip id="motorcycle_101" depart="303.00" from="498958813#0" to="-4082552" type="motorcycle__motorcycle"/>
    <trip id="motorcycle_102" depart="306.00" from="1018951417" to="1135565524#0" type="motorcycle__motorcycle"/>
    <trip id="motorcycle_103" depart="309.00" from="673956940" to="4369050#0" type="motorcycle__motorcycle"/>
    <trip id="motorcycle_104" depart="312.00" from="1135565524#0" to="1018951421#0" type="motorcycle__motorcycle"/>
    <trip id="motorcycle_105" depart="315.00" from="4356098#1" to="4373994" type="motorcycle__motorcycle"/>
    <trip id="motorcycle_106" depart="318.00" from="542471106" to="1135565526#1" type="motorcycle__motorcycle"/>
    <trip id="motorcycle_107" depart="321.00" from="462641800#0" to="4358421#0" type="motorcycle__motorcycle"/>
    <trip id="motorcycle_108" depart="324.00" from="262200663#0" to="68543461#0" type="motorcycle__motorcycle"/>
    <trip id="motorcycle_109" depart="327.00" from="1018951427#0" to="4358461#2" type="motorcycle__motorcycle"/>
    <trip id="motorcycle_110" depart="330.00" from="-4376570" to="1018945233" type="motorcycle__motorcycle"/>
    <trip id="motorcycle_111" depart="333.00" from="53876136" to="1018951421#0" type="motorcycle__motorcycle"/>
    <trip id="motorcycle_112" depart="336.00" from="4358790" to="4253830" type="motorcycle__motorcycle"/>
    <trip id="motorcycle_113" depart="339.00" from="4370948" to="1135566098#0" type="motorcycle__motorcycle"/>
    <trip id="motorcycle_114" depart="342.00" from="1135565525#0" to="1067635384" type="motorcycle__motorcycle"/>
    <trip id="motorcycle_115" depart="345.00" from="4376571#0" to="4253830" type="motorcycle__motorcycle"/>
    <trip id="motorcycle_116" depart="348.00" from="570827698" to="498958813#0" type="motorcycle__motorcycle"/>
    <trip id="motorcycle_117" depart="351.00" from="-542471105#5" to="423007010#1" type="motorcycle__motorcycle"/>
    <trip id="motorcycle_118" depart="354.00" from="-498958813#0" to="-4358462#0" type="motorcycle__motorcycle"/>
    <trip id="motorcycle_119" depart="357.00" from="-4370989" to="462641798" type="motorcycle__motorcycle"/>
    <trip id="motorcycle_120" depart="360.00" from="4369048#0" to="4370987" type="motorcycle__motorcycle"/>
    <trip id="motorcycle_121" depart="363.00" from="1135565525#0" to="4253894" type="motorcycle__motorcycle"/>
    <trip id="motorcycle_122" depart="366.00" from="4362731" to="193420534" type="motorcycle__motorcycle"/>
    <trip id="motorcycle_123" depart="369.00" from="4253776" to="1018951424" type="motorcycle__motorcycle"/>
    <trip id="motorcycle_124" depart="372.00" from="-4376570" to="1044356411" type="motorcycle__motorcycle"/>
    <trip id="motorcycle_125" depart="375.00" from="49796165" to="4253785" type="motorcycle__motorcycle"/>
    <trip id="motorcycle_126" depart="378.00" from="542471105#1" to="232725808" type="motorcycle__motorcycle"/>
    <trip id="motorcycle_127" depart="381.00" from="1064360339#0" to="436938220#0" type="motorcycle__motorcycle"/>
    <trip id="motorcycle_128" depart="384.00" from="4370886" to="-38310154#0" type="motorcycle__motorcycle"/>
    <trip id="motorcycle_129" depart="387.00" from="4356098#0" to="-49796159" type="motorcycle__motorcycle"/>
    <trip id="motorcycle_130" depart="390.00" from="-53638574" to="498958810#0" type="motorcycle__motorcycle"/>
    <trip id="motorcycle_131" depart="393.00" from="-4358462#0" to="1018951429" type="motorcycle__motorcycle"/>
    <trip id="motorcycle_132" depart="396.00" from="673956940" to="211557608#2" type="motorcycle__motorcycle"/>
    <trip id="motorcycle_133" depart="399.00" from="-53638574" to="1018945232" type="motorcycle__motorcycle"/>
    <trip id="motorcycle_134" depart="402.00" from="1018951428#0" to="4360035" type="motorcycle__motorcycle"/>
    <trip id="motorcycle_135" depart="405.00" from="-49798175" to="542471105#0" type="motorcycle__motorcycle"/>
    <trip id="motorcycle_136" depart="408.00" from="1135566098#0" to="673569249" type="motorcycle__motorcycle"/>
    <trip id="motorcycle_137" depart="411.00" from="53638574" to="1067635385#0" type="motorcycle__motorcycle"/>
    <trip id="motorcycle_138" depart="414.00" from="1018951431" to="262200663#2" type="motorcycle__motorcycle"/>
    <trip id="motorcycle_139" depart="417.00" from="-49798175" to="43491848#0" type="motorcycle__motorcycle"/>
    <trip id="motorcycle_140" depart="420.00" from="-4358462#0" to="-38310154#0" type="motorcycle__motorcycle"/>
    <trip id="motorcycle_141" depart="423.00" from="673569250" to="1067635385#0" type="motorcycle__motorcycle"/>
    <trip id="motorcycle_142" depart="426.00" from="4253812#0" to="2263976" type="motorcycle__motorcycle"/>
    <trip id="motorcycle_143" depart="429.00" from="1094661232#3" to="-4370987" type="motorcycle__motorcycle"/>
    <trip id="motorcycle_144" depart="432.00" from="53876136" to="673569249" type="motorcycle__motorcycle"/>
    <trip id="motorcycle_145" depart="435.00" from="669229893#0" to="-53638574" type="motorcycle__motorcycle"/>
    <trip id="motorcycle_146" depart="438.00" from="1018951420" to="4253972#0" type="motorcycle__motorcycle"/>
    <trip id="motorcycle_147" depart="441.00" from="673569249" to="4082552" type="motorcycle__motorcycle"/>
    <trip id="motorcycle_148" depart="444.00" from="4356104" to="4356098#2" type="motorcycle__motorcycle"/>
    <trip id="motorcycle_149" depart="447.00" from="1018951433" to="399696957" type="motorcycle__motorcycle"/>
    <trip id="motorcycle_150" depart="450.00" from="1093694666" to="1018951431" type="motorcycle__motorcycle"/>
    <trip id="motorcycle_151" depart="453.00" from="-4373994" to="1067635381" type="motorcycle__motorcycle"/>
    <trip id="motorcycle_152" depart="456.00" from="673569250" to="2263976" type="motorcycle__motorcycle"/>
    <trip id="motorcycle_153" depart="459.00" from="4259271#0" to="43118736#0" type="motorcycle__motorcycle"/>
    <trip id="motorcycle_154" depart="462.00" from="542471107#0" to="210500025#0" type="motorcycle__motorcycle"/>
    <trip id="motorcycle_155" depart="465.00" from="1093694666" to="1135565524#0" type="motorcycle__motorcycle"/>
    <trip id="motorcycle_156" depart="468.00" from="1094661232#3" to="4376571#0" type="motorcycle__motorcycle"/>
    <trip id="motorcycle_157" depart="471.00" from="49798175" to="1094661232#0" type="motorcycle__motorcycle"/>
    <trip id="motorcycle_158" depart="474.00" from="1135545587" to="4082552" type="motorcycle__motorcycle"/>
    <trip id="motorcycle_159" depart="477.00" from="4253785" to="4253812#3" type="motorcycle__motorcycle"/>
    <trip id="motorcycle_160" depart="480.00" from="1018951429" to="-4082552" type="motorcycle__motorcycle"/>
    <trip id="motorcycle_161" depart="483.00" from="1018951428#0" to="-4370989" type="motorcycle__motorcycle"/>
    <trip id="motorcycle_162" depart="486.00" from="4082552" to="-4370989" type="motorcycle__motorcycle"/>
    <trip id="motorcycle_163" depart="489.00" from="-4370989" to="4254981" type="motorcycle__motorcycle"/>
    <trip id="motorcycle_164" depart="492.00" from="1067635382" to="436938220#2" type="motorcycle__motorcycle"/>
    <trip id="motorcycle_165" depart="495.00" from="262200663#2" to="4480717#0" type="motorcycle__motorcycle"/>
    <trip id="motorcycle_166" depart="498.00" from="1018924455" to="318825723" type="motorcycle__motorcycle"/>
    <trip id="motorcycle_167" depart="501.00" from="4369050#0" to="-4373994" type="motorcycle__motorcycle"/>
    <trip id="motorcycle_168" depart="504.00" from="542471107#2" to="1018945234#0" type="motorcycle__motorcycle"/>
    <trip id="motorcycle_169" depart="507.00" from="4362701#0" to="68543461#0" type="motorcycle__motorcycle"/>
    <trip id="motorcycle_170" depart="510.00" from="436945579#1" to="1131283657#0" type="motorcycle__motorcycle"/>
    <trip id="motorcycle_171" depart="513.00" from="-498958813#0" to="35085535#1" type="motorcycle__motorcycle"/>
    <trip id="motorcycle_172" depart="516.00" from="542471105#0" to="1067635385#0" type="motorcycle__motorcycle"/>
    <trip id="motorcycle_173" depart="519.00" from="49798175" to="-980758926" type="motorcycle__motorcycle"/>
    <trip id="motorcycle_174" depart="522.00" from="53876136" to="-4358441" type="motorcycle__motorcycle"/>
    <trip id="motorcycle_175" depart="525.00" from="1094661232#3" to="53876136" type="motorcycle__motorcycle"/>
    <trip id="motorcycle_176" depart="528.00" from="436938220#2" to="53876143" type="motorcycle__motorcycle"/>
    <trip id="motorcycle_177" depart="531.00" from="4370948" to="4360146" type="motorcycle__motorcycle"/>
    <trip id="motorcycle_178" depart="534.00" from="4356104" to="1018951413" type="motorcycle__motorcycle"/>
    <trip id="motorcycle_179" depart="537.00" from="211557607#0" to="1018924456" type="motorcycle__motorcycle"/>
    <trip id="motorcycle_180" depart="540.00" from="4358438" to="4356102" type="motorcycle__motorcycle"/>
    <trip id="motorcycle_181" depart="543.00" from="1018951431" to="-4370987" type="motorcycle__motorcycle"/>
    <trip id="motorcycle_182" depart="546.00" from="647037413" to="436945579#1" type="motorcycle__motorcycle"/>
    <trip id="motorcycle_183" depart="549.00" from="4082552" to="399696957" type="motorcycle__motorcycle"/>
    <trip id="motorcycle_184" depart="552.00" from="4370989" to="23198010" type="motorcycle__motorcycle"/>
    <trip id="motorcycle_185" depart="555.00" from="193420534" to="1135565526#0" type="motorcycle__motorcycle"/>
    <trip id="motorcycle_186" depart="558.00" from="1018951432" to="-4082560" type="motorcycle__motorcycle"/>
    <trip id="motorcycle_187" depart="561.00" from="4254010#1" to="211557608#0" type="motorcycle__motorcycle"/>
    <trip id="motorcycle_188" depart="564.00" from="4253776" to="-4370987" type="motorcycle__motorcycle"/>
    <trip id="motorcycle_189" depart="567.00" from="1135565527#0" to="-669229893#0" type="motorcycle__motorcycle"/>
    <trip id="motorcycle_190" depart="570.00" from="-542471105#0" to="1018951434" type="motorcycle__motorcycle"/>
    <trip id="motorcycle_191" depart="573.00" from="4370889#0" to="211487026#0" type="motorcycle__motorcycle"/>
    <trip id="motorcycle_192" depart="576.00" from="210447794#0" to="4253891" type="motorcycle__motorcycle"/>
    <trip id="motorcycle_193" depart="579.00" from="1018951427#0" to="-1094661232#2" type="motorcycle__motorcycle"/>
    <trip id="motorcycle_194" depart="582.00" from="38310154#0" to="318825723" type="motorcycle__motorcycle"/>
    <trip id="motorcycle_195" depart="585.00" from="4254981" to="215065448#0" type="motorcycle__motorcycle"/>
    <trip id="motorcycle_196" depart="588.00" from="4356102" to="4358462#0" type="motorcycle__motorcycle"/>
    <trip id="motorcycle_197" depart="591.00" from="1018951427#2" to="297206317#1" type="motorcycle__motorcycle"/>
    <trip id="motorcycle_198" depart="594.00" from="232725809" to="1018951424" type="motorcycle__motorcycle"/>
    <trip id="motorcycle_199" depart="597.00" from="211486426#0" to="4253776" type="motorcycle__motorcycle"/>
    <trip id="motorcycle_200" depart="600.00" from="53638574" to="542471105#3" type="motorcycle__motorcycle"/>
    <trip id="motorcycle_201" depart="603.00" from="1044356411" to="43486254#0" type="motorcycle__motorcycle"/>
    <trip id="motorcycle_202" depart="606.00" from="-4360148" to="-4370989" type="motorcycle__motorcycle"/>
    <trip id="motorcycle_203" depart="609.00" from="35085535#0" to="49798175" type="motorcycle__motorcycle"/>
    <trip id="motorcycle_204" depart="612.00" from="1018924456" to="4362701#1" type="motorcycle__motorcycle"/>
    <trip id="motorcycle_205" depart="615.00" from="462641800#0" to="1131262158" type="motorcycle__motorcycle"/>
    <trip id="motorcycle_206" depart="618.00" from="4356147" to="4376571#0" type="motorcycle__motorcycle"/>
    <trip id="motorcycle_207" depart="621.00" from="1135566097" to="4358441" type="motorcycle__motorcycle"/>
    <trip id="motorcycle_208" depart="624.00" from="4358456" to="4253812#2" type="motorcycle__motorcycle"/>
    <trip id="motorcycle_209" depart="627.00" from="4373994" to="53638574" type="motorcycle__motorcycle"/>
    <trip id="motorcycle_210" depart="630.00" from="647037413" to="4253790" type="motorcycle__motorcycle"/>
    <trip id="motorcycle_211" depart="633.00" from="1018945233" to="1018951432" type="motorcycle__motorcycle"/>
    <trip id="motorcycle_212" depart="636.00" from="1018951421#0" to="4253790" type="motorcycle__motorcycle"/>
    <trip id="motorcycle_213" depart="639.00" from="4358790" to="-4362731" type="motorcycle__motorcycle"/>
    <trip id="motorcycle_214" depart="642.00" from="4356098#2" to="4358456" type="motorcycle__motorcycle"/>
    <trip id="motorcycle_215" depart="645.00" from="1135565526#0" to="35085535#1" type="motorcycle__motorcycle"/>
    <trip id="motorcycle_216" depart="648.00" from="1018943769" to="4358462#0" type="motorcycle__motorcycle"/>
    <trip id="motorcycle_217" depart="651.00" from="-4358462#0" to="673956940" type="motorcycle__motorcycle"/>
    <trip id="motorcycle_218" depart="654.00" from="436938229" to="4254010#1" type="motorcycle__motorcycle"/>
    <trip id="motorcycle_219" depart="657.00" from="1024601863#0" to="542471105#1" type="motorcycle__motorcycle"/>
    <trip id="motorcycle_220" depart="660.00" from="647037413" to="-669229893#0" type="motorcycle__motorcycle"/>
    <trip id="motorcycle_221" depart="663.00" from="4362701#0" to="4373994" type="motorcycle__motorcycle"/>
    <trip id="motorcycle_222" depart="666.00" from="43118736#0" to="4358438" type="motorcycle__motorcycle"/>
    <trip id="motorcycle_223" depart="669.00" from="211557609#1" to="542471106" type="motorcycle__motorcycle"/>
    <trip id="motorcycle_224" depart="672.00" from="669229893#0" to="210447794#0" type="motorcycle__motorcycle"/>
    <trip id="motorcycle_225" depart="675.00" from="436938220#2" to="211557609#2" type="motorcycle__motorcycle"/>
    <trip id="motorcycle_226" depart="678.00" from="1018943769" to="1135545587" type="motorcycle__motorcycle"/>
    <trip id="motorcycle_227" depart="681.00" from="-542471105#0" to="542471105#0" type="motorcycle__motorcycle"/>
    <trip id="motorcycle_228" depart="684.00" from="647037413" to="-53876143" type="motorcycle__motorcycle"/>
    <trip id="motorcycle_229" depart="687.00" from="4253812#1" to="211489821#0" type="motorcycle__motorcycle"/>
    <trip id="motorcycle_230" depart="690.00" from="-53876143" to="1067635385#0" type="motorcycle__motorcycle"/>
    <trip id="motorcycle_231" depart="693.00" from="1018951429" to="4360147" type="motorcycle__motorcycle"/>
    <trip id="motorcycle_232" depart="696.00" from="-1065127950" to="1018951416" type="motorcycle__motorcycle"/>
    <trip id="motorcycle_233" depart="699.00" from="211557608#0" to="-4082552" type="motorcycle__motorcycle"/>
    <trip id="motorcycle_234" depart="702.00" from="4253894" to="4253875" type="motorcycle__motorcycle"/>
    <trip id="motorcycle_235" depart="705.00" from="4370943" to="1018951419" type="motorcycle__motorcycle"/>
    <trip id="motorcycle_236" depart="708.00" from="1065112862" to="4082552" type="motorcycle__motorcycle"/>
    <trip id="motorcycle_237" depart="711.00" from="1044356411" to="4253812#0" type="motorcycle__motorcycle"/>
    <trip id="motorcycle_238" depart="714.00" from="1018951431" to="4358421#0" type="motorcycle__motorcycle"/>
    <trip id="motorcycle_239" depart="717.00" from="4369048#0" to="436945579#1" type="motorcycle__motorcycle"/>
    <trip id="motorcycle_240" depart="720.00" from="673025496" to="4082552" type="motorcycle__motorcycle"/>
    <trip id="motorcycle_241" depart="723.00" from="262200663#1" to="4376580" type="motorcycle__motorcycle"/>
    <trip id="motorcycle_242" depart="726.00" from="4360148" to="4253790" type="motorcycle__motorcycle"/>
    <trip id="motorcycle_243" depart="729.00" from="1135566870" to="1067635382" type="motorcycle__motorcycle"/>
    <trip id="motorcycle_244" depart="732.00" from="-498958813#0" to="436945579#1" type="motorcycle__motorcycle"/>
    <trip id="motorcycle_245" depart="735.00" from="-53876143" to="4360146" type="motorcycle__motorcycle"/>
    <trip id="motorcycle_246" depart="738.00" from="399696957" to="669229894#0" type="motorcycle__motorcycle"/>
    <trip id="motorcycle_247" depart="741.00" from="4360146" to="673569249" type="motorcycle__motorcycle"/>
    <trip id="motorcycle_248" depart="744.00" from="-570827698" to="318825723" type="motorcycle__motorcycle"/>
    <trip id="motorcycle_249" depart="747.00" from="4253776" to="1131262158" type="motorcycle__motorcycle"/>
    <trip id="motorcycle_250" depart="750.00" from="318825723" to="1135566095#1" type="motorcycle__motorcycle"/>
    <trip id="motorcycle_251" depart="753.00" from="38310154#0" to="-1065127950" type="motorcycle__motorcycle"/>
    <trip id="motorcycle_252" depart="756.00" from="211557609#0" to="2263976" type="motorcycle__motorcycle"/>
    <trip id="motorcycle_253" depart="759.00" from="1093694666" to="211487026#0" type="motorcycle__motorcycle"/>
    <trip id="motorcycle_254" depart="762.00" from="4362732" to="4358421#0" type="motorcycle__motorcycle"/>
    <trip id="motorcycle_255" depart="765.00" from="262200663#1" to="43486254#0" type="motorcycle__motorcycle"/>
    <trip id="motorcycle_256" depart="768.00" from="1135566098#0" to="1018951419" type="motorcycle__motorcycle"/>
    <trip id="motorcycle_257" depart="771.00" from="-1065127950" to="1065112862" type="motorcycle__motorcycle"/>
    <trip id="motorcycle_258" depart="774.00" from="4253812#1" to="498958810#0" type="motorcycle__motorcycle"/>
    <trip id="motorcycle_259" depart="777.00" from="4370889#0" to="35085535#0" type="motorcycle__motorcycle"/>
    <trip id="motorcycle_260" depart="780.00" from="673956940" to="232725809" type="motorcycle__motorcycle"/>
    <trip id="motorcycle_261" depart="783.00" from="4370943" to="211489821#0" type="motorcycle__motorcycle"/>
    <trip id="motorcycle_262" depart="786.00" from="4358461#2" to="68543461#1" type="motorcycle__motorcycle"/>
    <trip id="motorcycle_263" depart="789.00" from="1093694666" to="1018945233" type="motorcycle__motorcycle"/>
    <trip id="motorcycle_264" depart="792.00" from="4253891" to="38748498#0" type="motorcycle__motorcycle"/>