<?xml version="1.0" encoding="UTF-8"?>
<additional xmlns:xsi="http://www.w3.org/2001/XMLSchema-instance" xsi:noNamespaceSchemaLocation="http://sumo.dlr.de/xsd/additional_file.xsd">
    <edgeData id="edgeData" file="edge_data.xml" freq="3600" excludeEmpty="true"/>
    <laneData id="laneData" file="lane_data.xml" freq="3600" excludeEmpty="true"/>
</additional>

