<?xml version="1.0" encoding="UTF-8"?>

<!-- generated on 2023-04-21 08:38:43 by Eclipse SUMO duarouter Version 1.16.0
<configuration xmlns:xsi="http://www.w3.org/2001/XMLSchema-instance" xsi:noNamespaceSchemaLocation="http://sumo.dlr.de/xsd/duarouterConfiguration.xsd">

    <input>
        <net-file value="osm.net.xml.gz"/>
        <route-files value="cyc.trips.xml"/>
    </input>

    <output>
        <output-file value="PicadilyCyc.rou.xml"/>
    </output>

    <processing>
        <repair.from value="t"/>
        <repair.to value="t"/>
    </processing>

    <report>
        <ignore-errors value="true"/>
    </report>

</configuration>
-->

<routes xmlns:xsi="http://www.w3.org/2001/XMLSchema-instance" xsi:noNamespaceSchemaLocation="http://sumo.dlr.de/xsd/routes_file.xsd">
 <vType id="cyc__bicycle"  probability="0.1" vClass="bicycle" accel="1.2" decel="3" sigma="0.5" length="2.3" minGap="1.0" maxSpeed="20" guiShape="bicycle">
          <param key="lcModel" value ="LC2013"/>
       </vType>
    <vehicle id="cyc_0" type="cyc__bicycle" depart="0.00">
        <route edges="-4360148 -4358441 462641800#0 35085536#0 4376571#0 43486254#0 211487026#0 4376580 542471105#0 542471105#1 542471105#3 1094661232#0 4376573"/>
    </vehicle>
    <vehicle id="cyc_1" type="cyc__bicycle" depart="3.00">
        <route edges="4358790 -4358790 4356148 -49796165 4358456 -980758926"/>
    </vehicle>
    <vehicle id="cyc_4" type="cyc__bicycle" depart="12.00">
        <route edges="-38310154#1 38310154#1 1135566095#1 1135565527#0 1135565526#0 4370886 1018943769 436938229 1018951434 1018951432 1067635382 1018951427#0 1018951427#2 1067635381 -1018951425"/>
    </vehicle>
    <vehicle id="cyc_6" type="cyc__bicycle" depart="18.00">
        <route edges="4358790 4356147 436945579#0 436945579#1 2263976 462641798 1018924455 1018924456 462641800#0 35085536#0 193420534 436943364#0 1018945233 1018945234#0 1018945232 -1018945232"/>
    </vehicle>
    <vehicle id="cyc_7" type="cyc__bicycle" depart="21.00">
        <route edges="1135566097 1135566098#0 211486426#0 232725808 1135566870 211557609#0 211557609#1 211557609#2 1135566096#0 1135566095#0 1135566095#1 1135565527#0 1135565526#0 1135565526#1 4376571#0 215065448#0 4369048#0 35085535#0 35085535#1 436945579#0 436945579#1 2263976 462641798 1018924455 1018924456 4358441"/>
    </vehicle>
    <vehicle id="cyc_8" type="cyc__bicycle" depart="24.00">
        <route edges="-542471105#0 542471105#0 542471107#0 542471107#1 542471107#2 262200663#1 262200663#2 570827697 570827698 570827699"/>
    </vehicle>
    <vehicle id="cyc_9" type="cyc__bicycle" depart="27.00">
        <route edges="498958813#2 -498958813#2 -498958813#0 4358790 4356147 436945579#0 436945579#1 2263976 462641798 1018924455 1018924456 462641800#0 35085536#0 193420534 436943364#0 1018945233 1018943769 436938229 1018951434 1018951432 1067635382 1018951427#0 1018951428#0 1018951429 -1018951429"/>
    </vehicle>
    <vehicle id="cyc_12" type="cyc__bicycle" depart="36.00">
        <route edges="-498958813#2 -498958813#0 4358790 23198010 4356098#1 4253972#0 -542471105#2 -542471105#0 542471106 -211487026#1 210447794#0 210447794#3 1135565524#0 1135565525#0 1135566097 1135566098#0 211486426#0 232725808 1135566870 211557609#0 211557609#1 211557609#2 1135566096#0 1135566095#0 1135566095#1 1135565527#0"/>
    </vehicle>
    <vehicle id="cyc_13" type="cyc__bicycle" depart="39.00">
        <route edges="-1018951429 1018951429 1018951431 1018951433 399696957 1018945234#0 1018945232 43118736#0 215065448#0 4369048#0 -1135568898 -757744789#0 4358461#0 4358461#2 4358462#0 4358462#1 1093694666 -53876143"/>
    </vehicle>
    <vehicle id="cyc_14" type="cyc__bicycle" depart="42.00">
        <route edges="1135566095#1 1135565527#0 1135565526#0 1135565526#1 4376571#0 210447794#3 1135565524#0 1135565525#0 1135566097 1135566098#0 211486426#0 232725808 1135566870 211557609#0 211557609#1 211557609#2"/>
    </vehicle>
    <vehicle id="cyc_15" type="cyc__bicycle" depart="45.00">
        <route edges="-542471105#2"/>
    </vehicle>
    <vehicle id="cyc_16" type="cyc__bicycle" depart="48.00">
        <route edges="-498958813#2 -498958813#0 4358790 23198010 4356098#1 4253972#0 -542471105#2 -542471105#0 542471106 -211487026#1 210447794#0 210447794#3"/>
    </vehicle>
    <vehicle id="cyc_17" type="cyc__bicycle" depart="51.00">
        <route edges="1018945234#0 1018945232 43118736#0 215065448#0 4369048#0 -1135568898 -757744789#0 35085536#0 193420534 436943364#0 1018945233 1018943769 436938229 1018951434 1018951432 1067635382 1018951427#0 1018951427#2 1067635381 1018951424 1018951419 -1018951419"/>
    </vehicle>
    <vehicle id="cyc_19" type="cyc__bicycle" depart="57.00">
        <route edges="4253812#2 4253812#3 4254010#0 4254010#1 -480077795"/>
    </vehicle>
    <vehicle id="cyc_20" type="cyc__bicycle" depart="60.00">
        <route edges="757744789#1 35085535#0 35085535#1 436945579#0 436945579#1 2263976 462641798 1018924455 1018924456 462641800#0"/>
    </vehicle>
    <vehicle id="cyc_21" type="cyc__bicycle" depart="63.00">
        <route edges="-4358441 462641800#0 35085536#0 193420534 436943364#0 1018945233 1018943769 436938229 1018951434 1018951432 1067635382 1018951427#0 1018951427#2"/>
    </vehicle>
    <vehicle id="cyc_22" type="cyc__bicycle" depart="66.00">
        <route edges="4358430"/>
    </vehicle>
    <vehicle id="cyc_24" type="cyc__bicycle" depart="72.00">
        <route edges="4370952 211557609#1 1135545587 4370889#0 1131262161#0 1044356411 4253812#0 4253894 4254981"/>
    </vehicle>
    <vehicle id="cyc_27" type="cyc__bicycle" depart="81.00">
        <route edges="211557609#2 1135566096#0 1135566095#0 1135566095#1 1135565527#0 1135565526#0 4370886 1018943769 436938229 1018951434 1018951432 1067635382 1018951427#0 1131262161#0 4253830 262200662#0 38748498#2"/>
    </vehicle>
    <vehicle id="cyc_28" type="cyc__bicycle" depart="84.00">
        <route edges="-1018951430 1067635382 1018951427#0 1131262161#0 1044356411 4253812#0 4253812#1 4253812#2 4253812#3 262200663#0 262200663#1 262200663#2 570827697 570827698 570827699 -570827699"/>
    </vehicle>
    <vehicle id="cyc_30" type="cyc__bicycle" depart="90.00">
        <route edges="-4373994 4373994 4360147 1065112862 210500025#0 2263971#0 603198589 4356104 318825723 -498958813#2 -498958813#0 4358790 4356147 436945579#0 436945579#1 2263976 462641798 1018924455 1018924456 462641800#0 35085536#0 193420534 436943364#0 1018945233 4253891 290405994 4253812#0 4253812#1 4253875 275510216#1"/>
    </vehicle>
    <vehicle id="cyc_31" type="cyc__bicycle" depart="93.00">
        <route edges="4356102 1018924455 1018924456 462641800#0 35085536#0 193420534 436943364#0 1018945233 1018945234#0 1018945232 43118736#0"/>
    </vehicle>
    <vehicle id="cyc_33" type="cyc__bicycle" depart="99.00">
        <route edges="215065448#0 4369048#0 -1135568898 -757744789#0 4358461#0 4358461#2 4358462#0 4362732"/>
    </vehicle>
    <vehicle id="cyc_35" type="cyc__bicycle" depart="105.00">
        <route edges="211489821#0 2263971#0 603198589 4356104 318825723 -498958813#2 -498958813#0 4358790 4356147 436945579#0 436945579#1 2263976 462641798 1018924455 1018924456 462641800#0 35085536#0 193420534 436943364#0 1018945233 1018943769 436938229 1018951434 1018951432 1067635382 1018951427#0 1018951428#0 1018951429 -1018951429"/>
    </vehicle>
    <vehicle id="cyc_36" type="cyc__bicycle" depart="108.00">
        <route edges="-1065127950 -1094661232#2 -542471105#5 -542471105#2 -542471105#0 542471106 4358454#0 4356098#0 4356098#1 4356098#2 1131283657#0 4356148"/>
    </vehicle>
    <vehicle id="cyc_37" type="cyc__bicycle" depart="111.00">
        <route edges="673956940 325008374#0 -542471105#2 -542471105#0 542471106 4358454#0 4369048#0 -1135568898 -757744789#0 35085536#0 193420534 436943364#0 1018945233 1018943769 436938229 1018951434 1018951432 1067635382 1018951427#0 1018951428#0 1018951429 1018951431 1018951433 399696957"/>
    </vehicle>
    <vehicle id="cyc_38" type="cyc__bicycle" depart="114.00">
        <route edges="1094661232#0 -1094661232#2 -542471105#5 -542471105#2 -542471105#0 542471106 4358454#0 4369048#0 35085535#0 35085535#1 436945579#0 436945579#1 53876136 1065112862 210500025#0 2263971#0 4360146 -4373994"/>
    </vehicle>
    <vehicle id="cyc_39" type="cyc__bicycle" depart="117.00">
        <route edges="211557609#1 211557609#2 1135566096#0 1135566095#0 1135566095#1 1135565527#0 1135565526#0 1135565526#1 4376571#0 43486254#0 211487026#0 4376580 542471105#0 542471105#1 542471105#3 68543461#0"/>
    </vehicle>
    <vehicle id="cyc_40" type="cyc__bicycle" depart="120.00">
        <route edges="4360147 1065112862 210500025#0 2263971#0 603198589 4356104 318825723 -498958813#2 -498958813#0 4358790 23198010 4356098#1 4253972#0 -542471105#2 542471107#0 542471107#1 542471107#2 262200663#1"/>
    </vehicle>
    <vehicle id="cyc_41" type="cyc__bicycle" depart="123.00">
        <route edges="4376580 542471105#0 542471105#1 542471105#3 -542471105#5"/>
    </vehicle>
    <vehicle id="cyc_42" type="cyc__bicycle" depart="126.00">
        <route edges="2263971#0 603198589 4356104 318825723 -498958813#2 -498958813#0 4358790 4356147 436945579#0 4358431 647037413"/>
    </vehicle>
    <vehicle id="cyc_43" type="cyc__bicycle" depart="129.00">
        <route edges="38310154#0 38310154#1 1135566095#1 1135565527#0 1135565526#0 1135565526#1 4376571#0 210447794#3"/>
    </vehicle>
    <vehicle id="cyc_44" type="cyc__bicycle" depart="132.00">
        <route edges="1018924454 462641800#0 35085536#0 193420534 436943364#0 1018945233 4253891 290405994 4253812#0 4253812#1 4253875 275510216#1"/>
    </vehicle>
    <vehicle id="cyc_45" type="cyc__bicycle" depart="135.00">
        <route edges="603198589 4356104 318825723 -498958813#2 -498958813#0 4358790 4356147 436945579#0 436945579#1 2263976 462641798 1018924455 1018924456 462641800#0 35085536#0 193420534 436943364#0 1018945233 -1018945233"/>
    </vehicle>
    <vehicle id="cyc_46" type="cyc__bicycle" depart="138.00">
        <route edges="4362732 -4362732 4358462#1 1093694666 -53876143 4356102 1018924455 1018924456 462641800#0 35085536#0 1135565524#0 1135565525#0 1135566097 1135566098#0 211486426#0 232725808 1135566870 211557609#0 -4370952 4370952"/>
    </vehicle>
    <vehicle id="cyc_49" type="cyc__bicycle" depart="147.00">
        <route edges="318825723 -498958813#2 -498958813#0 4358790 23198010 4356098#1 4253972#0 -542471105#2 -542471105#0 542471106 -211487026#1 210447794#0 210447794#3 1135565524#0 1135565525#0 1135566097 1135566098#0 211486426#0 232725808 1135566870 211557609#0 211557609#1 211557609#2 1135566096#0 1135566095#0"/>
    </vehicle>
    <vehicle id="cyc_50" type="cyc__bicycle" depart="150.00">
        <route edges="-1094661232#2 -542471105#5 -542471105#2 -542471105#0 542471106 4358454#0 4369048#0 -1135568898 -757744789#0 35085536#0 193420534 436943364#0 1018945233 4253891 290405994 4253812#0 4253812#1 4253812#2 4253812#3 4254010#0 4254010#1 -480077795 480077795"/>
    </vehicle>
    <vehicle id="cyc_51" type="cyc__bicycle" depart="153.00">
        <route edges="35085535#1 436945579#0 4358431 647037413 659406290 -49796159"/>
    </vehicle>
    <vehicle id="cyc_52" type="cyc__bicycle" depart="156.00">
        <route edges="211557609#2 1135566096#0 1135566095#0 1135566095#1 1135565527#0 1135565526#0 1135565526#1 4376571#0 210447794#3 1135565524#0 1135565525#0 1135566097 1135566098#0 211486426#0 211557608#0 211557608#2"/>
    </vehicle>
    <vehicle id="cyc_53" type="cyc__bicycle" depart="159.00">
        <route edges="1018951434 1018951432"/>
    </vehicle>
    <vehicle id="cyc_55" type="cyc__bicycle" depart="165.00">
        <route edges="423007010#2 262200662#0 38748498#2 1018951420 1064360339#0 1018951428#0 1018951429 1018951431 1018951433 399696957 1018945234#0 1018945232 43118736#0 210447794#3"/>
    </vehicle>
    <vehicle id="cyc_58" type="cyc__bicycle" depart="174.00">
        <route edges="4480717#0 -4480717#2 1131283657#0 4358790 4356147 436945579#0 436945579#1 2263976 462641798 1018924455 1018924456 462641800#0 35085536#0 193420534 436943364#0"/>
    </vehicle>
    <vehicle id="cyc_60" type="cyc__bicycle" depart="180.00">
        <route edges="-757744789#0 35085536#0 4376571#0"/>
    </vehicle>
    <vehicle id="cyc_62" type="cyc__bicycle" depart="186.00">
        <route edges="-1018951417"/>
    </vehicle>
    <vehicle id="cyc_63" type="cyc__bicycle" depart="189.00">
        <route edges="4358462#0 4358462#1 1093694666 -53876143 4356102 1018924455 1018924456 462641800#0 4358421#0 -757744789#0"/>
    </vehicle>
    <vehicle id="cyc_64" type="cyc__bicycle" depart="192.00">
        <route edges="-4082560 4082560 -1094661232#2 -542471105#5 -542471105#2 -542471105#0 542471106 4358454#0 4369048#0 -1135568898 -757744789#0 35085536#0 193420534 436943364#0 1018945233 4253891 290405994 4253776 673569249 673025496 673569250 4253794"/>
    </vehicle>
    <vehicle id="cyc_65" type="cyc__bicycle" depart="195.00">
        <route edges="1018951429 1018951431 1018951433 399696957 1018945234#0 1018945232 43118736#0 215065448#0 4369048#0 35085535#0 35085535#1 -1135568899"/>
    </vehicle>
    <vehicle id="cyc_67" type="cyc__bicycle" depart="201.00">
        <route edges="-4370989 4370989 4370987 673956940 325008374#0 -542471105#2 -542471105#0 542471106 4358454#0 4369048#0 35085535#0 35085535#1 436945579#0 436945579#1 2263976 462641798 1018924455 1018924456"/>
    </vehicle>
    <vehicle id="cyc_68" type="cyc__bicycle" depart="204.00">
        <route edges="4356147 -1135568899 23198010 4356098#1 4253972#0 -542471105#2 -542471105#0 542471106 -211487026#1 210447794#0"/>
    </vehicle>
    <vehicle id="cyc_71" type="cyc__bicycle" depart="213.00">
        <route edges="1135565526#0 1135565526#1 193420534 436943364#0 1018945233 4253891 290405994 4253812#0 4253812#1 4253812#2 4253812#3 4254010#0 4254010#1 -480077795"/>
    </vehicle>
    <vehicle id="cyc_72" type="cyc__bicycle" depart="216.00">
        <route edges="-4082560 4082560 -1094661232#2 -542471105#5 -542471105#2 -542471105#0 542471106 4358454#0 4369048#0 35085535#0 35085535#1 436945579#0 436945579#1 53876136 1065112862 210500025#0 507776882"/>
    </vehicle>
    <vehicle id="cyc_73" type="cyc__bicycle" depart="219.00">
        <route edges="215065448#0 4356098#0 4356098#1 4356098#2 1131283657#0 4356148 -49796165 -49798175"/>
    </vehicle>
    <vehicle id="cyc_74" type="cyc__bicycle" depart="222.00">
        <route edges="423007010#0 423007010#1 423007010#2 262200662#0 38748498#2 1018951420 1064360339#0 1018951428#0 1018951429 1018951431 1018951433 399696957 1018945234#0 1018945232 43118736#0 210447794#3 1135565524#0 1135565525#0 1135566097 1135566098#0 211486426#0 232725808 1135566870 211557609#0 211557609#1 211557609#2 1135566096#0 1135566095#0 -38310154#1 4370948"/>
    </vehicle>
    <vehicle id="cyc_75" type="cyc__bicycle" depart="225.00">
        <route edges="-1018951418"/>
    </vehicle>
    <vehicle id="cyc_76" type="cyc__bicycle" depart="228.00">
        <route edges="-436938229 436938229 1018951434 1018951432 1067635382 1018951427#0 1018951428#0 1018951429 1018951431 1018951433 399696957 1018945234#0 1018945232 43118736#0 215065448#0 4369048#0 -1135568898 4358438"/>
    </vehicle>
    <vehicle id="cyc_77" type="cyc__bicycle" depart="231.00">
        <route edges="-4370987 4370987 673956940 325008374#0 -542471105#2 -542471105#0 542471106 4358454#0 4356098#0 4356098#1 4356098#2 1131283657#0 4356148"/>
    </vehicle>
    <vehicle id="cyc_78" type="cyc__bicycle" depart="234.00">
        <route edges="4254981 4358454#0 4356098#0 4356098#1 4253972#0 -542471105#2 542471107#0 542471107#1 542471107#2 262200663#1 262200663#2 262200663#3"/>
    </vehicle>
    <vehicle id="cyc_79" type="cyc__bicycle" depart="237.00">
        <route edges="-53638574 4358461#2 4358462#0 4358462#1 1093694666 -53876143 4356102 1018924455 1018924456 462641800#0 35085536#0 193420534 436943364#0 1018945233 4253891 290405994 4253776 673569249 673025496 673569250"/>
    </vehicle>
    <vehicle id="cyc_81" type="cyc__bicycle" depart="243.00">
        <route edges="-53638574 4358461#2 4358462#0 4358462#1 1093694666 -53876143 4356102 1018924455 1018924456 462641800#0 35085536#0 193420534 436943364#0 1018945233 4253891"/>
    </vehicle>
    <vehicle id="cyc_82" type="cyc__bicycle" depart="246.00">
        <route edges="1094661232#0 -1094661232#2 -542471105#5 -542471105#2 -542471105#0 542471106 -211487026#1 210447794#0 210447794#3 1135565524#0 1135565525#0 1135566097 1135566098#0 211486426#0 232725808 1135566870 211557609#0 211557609#1 211557609#2 1135566096#0 1135566095#0 -38310154#1 -38310154#0 38310154#0"/>
    </vehicle>
    <vehicle id="cyc_84" type="cyc__bicycle" depart="252.00">
        <route edges="-1126473307#1 4370889#0 1018951427#2 1067635381 1018951424 1018951419 436938220#0 436938220#2 1018951418 1018951421#0 1024601863#0 1018951416"/>
    </vehicle>
    <vehicle id="cyc_85" type="cyc__bicycle" depart="255.00">
        <route edges="669229893#0 232725808 1135566870 211557609#0 211557609#1 1135545587 4370889#0 1131262161#0 1044356411 4253812#0 4253812#1 4253812#2 4253812#3 4254010#0 -480077807 480077807"/>
    </vehicle>
    <vehicle id="cyc_86" type="cyc__bicycle" depart="258.00">
        <route edges="1018951417 38748498#0 38748498#2 1018951420 1064360339#0 1018951428#0 1018951429 1018951431 1018951433 399696957 1018945234#0 1018945232 43118736#0 215065448#0 4369048#0 35085535#0 35085535#1 436945579#0 436945579#1 2263976 462641798"/>
    </vehicle>
    <vehicle id="cyc_88" type="cyc__bicycle" depart="264.00">
        <route edges="4358456 -49796159 318825723 -498958813#2 -498958813#0 4358790 23198010 4356098#1 4253972#0 -542471105#2 -542471105#0 542471106 -211487026#1 210447794#0 210447794#3 1135565524#0 1135565525#0 1135566097 1135566098#0 211486426#0 232725808 1135566870 211557609#0 211557609#1 211557609#2 1135566096#0 1135566095#0 1135566095#1 1135565527#0 1135565526#0"/>
    </vehicle>
    <vehicle id="cyc_91" type="cyc__bicycle" depart="273.00">
        <route edges="4370889#0 1018951428#0 1018951429 1018951431 1018951433 399696957 1018945234#0 1018945232 43118736#0 210447794#3 1135565524#0 1135565525#0 1135566097 1135566098#0 211486426#0 -669229893#0 669229893#0"/>
    </vehicle>
    <vehicle id="cyc_92" type="cyc__bicycle" depart="276.00">
        <route edges="35085535#1 -1135568899 23198010 4356098#1 4253972#0 542471105#3 68543461#0 -4376570"/>
    </vehicle>
    <vehicle id="cyc_93" type="cyc__bicycle" depart="279.00">
        <route edges="462641800#0 35085536#0 193420534 436943364#0 1018945233 4253891 290405994 4253776 673569249 673025496 673569250"/>
    </vehicle>
    <vehicle id="cyc_94" type="cyc__bicycle" depart="282.00">
        <route edges="4356102 1018924455 1018924456 462641800#0 4358421#0 757744789#1 35085535#0 35085535#1 -1135568899 23198010"/>
    </vehicle>
    <vehicle id="cyc_95" type="cyc__bicycle" depart="285.00">
        <route edges="1067635382 1018951427#0 1018951428#0 1018951429 1018951431 1018951433 399696957 1018943769 436938229 1018951434 1018951432"/>
    </vehicle>
    <vehicle id="cyc_96" type="cyc__bicycle" depart="288.00">
        <route edges="-49796165 49796165 -4356148 4358790 4356147 436945579#0 436945579#1 2263976 462641798 1018924455 1018924456 462641800#0 35085536#0 193420534 436943364#0 1018945233 1018945234#0 1018945232 43118736#0"/>
    </vehicle>
    <vehicle id="cyc_97" type="cyc__bicycle" depart="291.00">
        <route edges="1135566095#0 1135566095#1 1135565527#0 1135565526#0 1135565526#1 193420534 436943364#0 1018945233 4253891 290405994 4253812#0 4253812#1 4253812#2 4253812#3 4254010#0 -480077807"/>
    </vehicle>
    <vehicle id="cyc_98" type="cyc__bicycle" depart="294.00">
        <route edges="-399696957 -1018951433 1018951433 399696957 4253891 290405994 4253812#0 4253812#1 4253812#2 4253812#3 4254010#0 4254010#1 4254010#3"/>
    </vehicle>
    <vehicle id="cyc_99" type="cyc__bicycle" depart="297.00">
        <route edges="1018951414 1018951415#0 1018951422#0 1018951417 38748498#0 38748498#2 1018951420 1064360339#0 1018951428#0 1018951429 1018951431 1018951433 399696957 1018945234#0 1018945232 43118736#0 215065448#0"/>
    </vehicle>
    <vehicle id="cyc_100" type="cyc__bicycle" depart="300.00">
        <route edges="1018951422#0 1018951417 38748498#0 38748498#2 1018951420 1064360339#0 1131262161#0 1044356411 4253812#0 4253812#1 4253812#2 4253812#3 4254010#0 4254010#1 -480077798 480077798"/>
    </vehicle>
    <vehicle id="cyc_101" type="cyc__bicycle" depart="303.00">
        <route edges="498958813#0 498958813#2 -498958813#2 -498958813#0 4358790 4356147 436945579#0 436945579#1 2263976 462641798 1018924455 1018924456 462641800#0 35085536#0 193420534 436943364#0 1018945233 1018943769 436938229 1018951434 1018951432 1067635382 1018951427#0 1018951427#2 1067635381 1018951424 1018951419 436938220#0 436938220#2 1018951418 -1018951418"/>
    </vehicle>
    <vehicle id="cyc_104" type="cyc__bicycle" depart="312.00">
        <route edges="1018951428#0 1018951429 1018951431 1018951433 399696957 1018945234#0 1018945232 43118736#0 215065448#0 4356098#0 4356098#1 4356098#2 1131283657#0 498958813#0 498958813#2 -498958813#2 -498958813#0"/>
    </vehicle>
    <vehicle id="cyc_106" type="cyc__bicycle" depart="318.00">
        <route edges="542471106 4358454#0 4369048#0 -1135568898 -757744789#0 35085536#0 193420534 436943364#0 1018945233 1018943769 436938229 1018951434 1018951432"/>
    </vehicle>
    <vehicle id="cyc_108" type="cyc__bicycle" depart="324.00">
        <route edges="211489808#0 211489821#0 2263971#0 603198589 4356104 318825723 -498958813#2 -498958813#0 4358790 23198010 4356098#1 4253972#0 542471105#3 68543461#0 68543461#1"/>
    </vehicle>
    <vehicle id="cyc_109" type="cyc__bicycle" depart="327.00">
        <route edges="-542471105#5 -542471105#2 -542471105#0 542471106 4358454#0"/>
    </vehicle>
    <vehicle id="cyc_111" type="cyc__bicycle" depart="333.00">
        <route edges="53876136 1065112862 210500025#0 2263971#0 603198589 4356104 318825723 -498958813#2 -498958813#0"/>
    </vehicle>
    <vehicle id="cyc_112" type="cyc__bicycle" depart="336.00">
        <route edges="4358462#1 1093694666 -53876143 4356102 1018924455 1018924456 462641800#0 35085536#0 4376571#0 43486254#0 211487026#0 4376580 542471105#0 542471105#1 542471105#3 1094661232#0 -4082560 4082560"/>
    </vehicle>
    <vehicle id="cyc_113" type="cyc__bicycle" depart="339.00">
        <route edges="4370989 4370987 673956940 325008374#0 -542471105#2 -542471105#0 542471106 4358454#0 4369048#0 35085535#0 35085535#1 436945579#0 436945579#1 53876136 1065112862"/>
    </vehicle>
    <vehicle id="cyc_116" type="cyc__bicycle" depart="348.00">
        <route edges="603198589 4356104 4358455 -980758926 -49798175 49798175"/>
    </vehicle>
    <vehicle id="cyc_117" type="cyc__bicycle" depart="351.00">
        <route edges="-4360148 -4358441 462641800#0 35085536#0 193420534 436943364#0 1018945233 4253891 290405994"/>
    </vehicle>
    <vehicle id="cyc_118" type="cyc__bicycle" depart="354.00">
        <route edges="-399696957 -1018951433 1018951433 399696957 4253891 290405994 -1044356411"/>
    </vehicle>
    <vehicle id="cyc_120" type="cyc__bicycle" depart="360.00">
        <route edges="4369048#0 -1135568898 -757744789#0 35085536#0 4376571#0 43486254#0 211487026#0 4376580 542471105#0 542471107#0 542471107#1 -4370988 4370988"/>
    </vehicle>
    <vehicle id="cyc_121" type="cyc__bicycle" depart="363.00">
        <route edges="1018951428#0 1018951429 1018951431 1018951433 399696957 4253891 290405994 4253776 673569249 673025496 673569250 4253785"/>
    </vehicle>
    <vehicle id="cyc_123" type="cyc__bicycle" depart="369.00">
        <route edges="35085535#1 436945579#0 436945579#1 2263976 462641798 1018924455 1018924456 462641800#0 4358461#0 4358461#2 4358462#0 4358462#1 1093694666 -53876143"/>
    </vehicle>
    <vehicle id="cyc_125" type="cyc__bicycle" depart="375.00">
        <route edges="49796165 -4356148 4358790 23198010 4356098#1 4253972#0 -542471105#2 -542471105#0 542471106 4358454#0 4369048#0 35085535#0"/>
    </vehicle>
    <vehicle id="cyc_126" type="cyc__bicycle" depart="378.00">
        <route edges="542471105#1 -542471105#2 -542471105#0 542471106 -211487026#1 210447794#0 210447794#3"/>
    </vehicle>
    <vehicle id="cyc_127" type="cyc__bicycle" depart="381.00">
        <route edges="1018924456 462641800#0 35085536#0 193420534 436943364#0 1018945233 1018943769 436938229 1018951434 1018951432 1067635382 1018951427#0 1018951427#2 1067635381 1018951424 1018951419 436938220#0"/>
    </vehicle>
    <vehicle id="cyc_128" type="cyc__bicycle" depart="384.00">
        <route edges="4370948 -4370948 38310154#1 1135566095#1 1135565527#0 1135565526#0 4370886 1018943769 436938229 1018951434 1018951432 1067635382 1018951427#0 1018951427#2 1067635381 1018951424 1018951419 436938220#0 436938220#2 1018951418 1018951421#0 1024601863#0 1018951416 -1018951416"/>
    </vehicle>
    <vehicle id="cyc_130" type="cyc__bicycle" depart="390.00">
        <route edges="-4356148 4356148 -49796165 -49798175 49798175"/>
    </vehicle>
    <vehicle id="cyc_131" type="cyc__bicycle" depart="393.00">
        <route edges="-1044356411 1044356411 4253812#0 4253812#1 4253812#2 4253812#3 262200663#0 262200663#1 262200663#2 570827697 570827698 570827699 -570827699 -570827698"/>
    </vehicle>
    <vehicle id="cyc_133" type="cyc__bicycle" depart="399.00">
        <route edges="-4358432#0 1131283657#0 4358790 4356147 436945579#0 436945579#1 53876136 1065112862 210500025#0 2263971#0 4360146 -4373994"/>
    </vehicle>
    <vehicle id="cyc_135" type="cyc__bicycle" depart="405.00">
        <route edges="-399696957 -1018951433 1018951433 399696957 1018945234#0 1018945232 43118736#0 215065448#0 4369048#0 -1135568898 -757744789#0 4358461#0 4358461#2 4358462#0 4358462#1 1093694666 -53876143 53876143"/>
    </vehicle>
    <vehicle id="cyc_136" type="cyc__bicycle" depart="408.00">
        <route edges="1067635382 1018951427#0 1131262161#0 1044356411 4253776 673569249"/>
    </vehicle>
    <vehicle id="cyc_138" type="cyc__bicycle" depart="414.00">
        <route edges="-757744789#0 4358421#0 757744789#1 35085535#0 35085535#1 436945579#0 436945579#1 2263976 211489808#0 211489821#0"/>
    </vehicle>
    <vehicle id="cyc_142" type="cyc__bicycle" depart="426.00">
        <route edges="399696957 4253891 290405994 4253812#0 4253812#1 4253812#2 4253812#3 262200663#0 262200663#1 136097421"/>
    </vehicle>
    <vehicle id="cyc_144" type="cyc__bicycle" depart="432.00">
        <route edges="53876136 1065112862 210500025#0 2263971#0 603198589 4356104 318825723 -498958813#2 -498958813#0 4358790 4356147 436945579#0 436945579#1 2263976 462641798 1018924455 1018924456 462641800#0 35085536#0 193420534 436943364#0 1018945233 4253891 290405994 4253776 673569249 673025496"/>
    </vehicle>
    <vehicle id="cyc_145" type="cyc__bicycle" depart="435.00">
        <route edges="669229893#0 232725808 1135566870 211557609#0 211557609#1 211557609#2 1135566096#0 1135566095#0 1135566095#1 1135565527#0 1135565526#0 1135565526#1 4376571#0 215065448#0 4356098#0 4356098#1 4356098#2 1131283657#0 4356148 -49796165 49796165 -4356148"/>
    </vehicle>
    <vehicle id="cyc_146" type="cyc__bicycle" depart="438.00">
        <route edges="-498958813#0 4358790 4356147 436945579#0 436945579#1 2263976 462641798 1018924455 1018924456 462641800#0 35085536#0 193420534 436943364#0 1018945233 4253891 290405994 4253776 673569249 4253790"/>
    </vehicle>
    <vehicle id="cyc_147" type="cyc__bicycle" depart="441.00">
        <route edges="673569250 4253785 4253812#1 4253812#2 4253812#3 262200663#0 262200663#1 262200663#2"/>
    </vehicle>
    <vehicle id="cyc_148" type="cyc__bicycle" depart="444.00">
        <route edges="43486254#0 211487026#0 4376580 542471105#0 -542471105#0 542471106 4358454#0 4369048#0 -1135568898 -757744789#0 35085536#0 193420534 436943364#0 1018945233 4253891 290405994 4253812#0 4253812#1 4253812#2 4253812#3 4254010#0 4254010#1"/>
    </vehicle>
    <vehicle id="cyc_149" type="cyc__bicycle" depart="447.00">
        <route edges="-980758926 49796165 -4356148 4358790 23198010 4356098#1 4253972#0 -542471105#2 542471107#0 542471107#1 542471107#2 262200663#1 262200663#2"/>
    </vehicle>
    <vehicle id="cyc_150" type="cyc__bicycle" depart="450.00">
        <route edges="1018951417 38748498#0 38748498#2 1018951420 1064360339#0 1018951428#0 1018951429 1018951431 1018951433 399696957 1018945234#0 1018945232 43118736#0 210447794#3 1135565524#0 1135565525#0 1135566097 1135566098#0 211486426#0 -669229893#0"/>
    </vehicle>
    <vehicle id="cyc_152" type="cyc__bicycle" depart="456.00">
        <route edges="673956940 325008374#0 -542471105#2 542471107#0 542471107#1 542471107#2 262200663#1 136097421"/>
    </vehicle>
    <vehicle id="cyc_155" type="cyc__bicycle" depart="465.00">
        <route edges="1018951417 38748498#0 38748498#2 1018951420 1064360339#0 1018951428#0 1018951429 1018951431 1018951433 399696957 1018943769 436938229 1018951434 1018951432 1067635382 1018951427#0"/>
    </vehicle>
    <vehicle id="cyc_156" type="cyc__bicycle" depart="468.00">
        <route edges="1018951420 1064360339#0 1018951428#0 1018951429 1018951431 1018951433 399696957 1018945234#0 1018945232 43118736#0 43486254#0 211487026#0 4376580 542471105#0 542471105#1 542471105#3 1094661232#0 4376573"/>
    </vehicle>
    <vehicle id="cyc_164" type="cyc__bicycle" depart="492.00">
        <route edges="1018945234#0 1018945232 43118736#0 215065448#0 4369048#0 -1135568898 -757744789#0 35085536#0 193420534 436943364#0 1018945233 1018943769 436938229 1018951434 1018951432 1067635382 1018951427#0 1018951427#2 1067635381 1018951424 1018951419 436938220#0 436938220#2"/>
    </vehicle>
    <vehicle id="cyc_165" type="cyc__bicycle" depart="495.00">