<?xml version="1.0" encoding="UTF-8"?>

<!-- generated on 2023-04-21 09:16:38.844956 by randomTrips.py v1_16_0+1095-e5f7288d143
<configuration>
    <fringe-factor value="0.70"/>
    <net-file value="osm.net.xml.gz"/>
    <period value="3.0"/>
    <seed value="1"/>
    <output-trip-file value="cyc.trips.xml"/>
    <prefix value="cyc_"/>
    <vclass value="bicycle"/>
    <vehicle-class value="bicycle"/>
</configuration>
-->

<routes xmlns:xsi="http://www.w3.org/2001/XMLSchema-instance" xsi:noNamespaceSchemaLocation="http://sumo.dlr.de/xsd/routes_file.xsd">
    <vType id="cyc__bicycle" vClass="bicycle"/>
    <trip id="cyc_0" depart="0.00" from="-4360148" to="4376573" type="cyc__bicycle"/>
    <trip id="cyc_1" depart="3.00" from="4358790" to="-980758926" type="cyc__bicycle"/>
    <trip id="cyc_2" depart="6.00" from="211557608#0" to="136097421" type="cyc__bicycle"/>
    <trip id="cyc_3" depart="9.00" from="4253875" to="436938220#0" type="cyc__bicycle"/>
    <trip id="cyc_4" depart="12.00" from="-38310154#1" to="-1018951425" type="cyc__bicycle"/>
    <trip id="cyc_5" depart="15.00" from="4370988" to="1135566096#0" type="cyc__bicycle"/>
    <trip id="cyc_6" depart="18.00" from="4358790" to="-1018945232" type="cyc__bicycle"/>
    <trip id="cyc_7" depart="21.00" from="1135566097" to="4358441" type="cyc__bicycle"/>
    <trip id="cyc_8" depart="24.00" from="-542471105#0" to="570827699" type="cyc__bicycle"/>
    <trip id="cyc_9" depart="27.00" from="498958813#2" to="-1018951429" type="cyc__bicycle"/>
    <trip id="cyc_10" depart="30.00" from="-1018951425" to="262200663#2" type="cyc__bicycle"/>
    <trip id="cyc_11" depart="33.00" from="542471107#1" to="1067635385#0" type="cyc__bicycle"/>
    <trip id="cyc_12" depart="36.00" from="-498958813#2" to="1135565527#0" type="cyc__bicycle"/>
    <trip id="cyc_13" depart="39.00" from="-1018951429" to="-53876143" type="cyc__bicycle"/>
    <trip id="cyc_14" depart="42.00" from="1135566095#1" to="211557609#2" type="cyc__bicycle"/>
    <trip id="cyc_15" depart="45.00" from="-542471105#2" to="-542471105#2" type="cyc__bicycle"/>
    <trip id="cyc_16" depart="48.00" from="-498958813#2" to="210447794#3" type="cyc__bicycle"/>
    <trip id="cyc_17" depart="51.00" from="1018945234#0" to="-1018951419" type="cyc__bicycle"/>
    <trip id="cyc_18" depart="54.00" from="4370988" to="318825723" type="cyc__bicycle"/>
    <trip id="cyc_19" depart="57.00" from="4253812#2" to="-480077795" type="cyc__bicycle"/>
    <trip id="cyc_20" depart="60.00" from="757744789#1" to="462641800#0" type="cyc__bicycle"/>
    <trip id="cyc_21" depart="63.00" from="-4358441" to="1018951427#2" type="cyc__bicycle"/>
    <trip id="cyc_22" depart="66.00" from="4358430" to="4358430" type="cyc__bicycle"/>
    <trip id="cyc_23" depart="69.00" from="542471107#1" to="1135565527#0" type="cyc__bicycle"/>
    <trip id="cyc_24" depart="72.00" from="4370952" to="4254981" type="cyc__bicycle"/>
    <trip id="cyc_25" depart="75.00" from="1018951416" to="38748498#2" type="cyc__bicycle"/>
    <trip id="cyc_26" depart="78.00" from="480077807" to="4376572" type="cyc__bicycle"/>
    <trip id="cyc_27" depart="81.00" from="211557609#2" to="38748498#2" type="cyc__bicycle"/>
    <trip id="cyc_28" depart="84.00" from="-1018951430" to="-570827699" type="cyc__bicycle"/>
    <trip id="cyc_29" depart="87.00" from="436938220#2" to="1135565525#0" type="cyc__bicycle"/>
    <trip id="cyc_30" depart="90.00" from="-4373994" to="275510216#1" type="cyc__bicycle"/>
    <trip id="cyc_31" depart="93.00" from="4356102" to="43118736#0" type="cyc__bicycle"/>
    <trip id="cyc_32" depart="96.00" from="1067635381" to="1135566097" type="cyc__bicycle"/>
    <trip id="cyc_33" depart="99.00" from="215065448#0" to="4362732" type="cyc__bicycle"/>
    <trip id="cyc_34" depart="102.00" from="23198010" to="1131262158" type="cyc__bicycle"/>
    <trip id="cyc_35" depart="105.00" from="211489821#0" to="-1018951429" type="cyc__bicycle"/>
    <trip id="cyc_36" depart="108.00" from="-1065127950" to="4356148" type="cyc__bicycle"/>
    <trip id="cyc_37" depart="111.00" from="673956940" to="399696957" type="cyc__bicycle"/>
    <trip id="cyc_38" depart="114.00" from="1094661232#0" to="-4373994" type="cyc__bicycle"/>
    <trip id="cyc_39" depart="117.00" from="211557609#1" to="68543461#0" type="cyc__bicycle"/>
    <trip id="cyc_40" depart="120.00" from="4360147" to="262200663#1" type="cyc__bicycle"/>
    <trip id="cyc_41" depart="123.00" from="4376580" to="-542471105#5" type="cyc__bicycle"/>
    <trip id="cyc_42" depart="126.00" from="2263971#0" to="647037413" type="cyc__bicycle"/>
    <trip id="cyc_43" depart="129.00" from="38310154#0" to="210447794#3" type="cyc__bicycle"/>
    <trip id="cyc_44" depart="132.00" from="1018924454" to="275510216#1" type="cyc__bicycle"/>
    <trip id="cyc_45" depart="135.00" from="603198589" to="-1018945233" type="cyc__bicycle"/>
    <trip id="cyc_46" depart="138.00" from="4362732" to="4370952" type="cyc__bicycle"/>
    <trip id="cyc_47" depart="141.00" from="480954362" to="4358461#2" type="cyc__bicycle"/>
    <trip id="cyc_48" depart="144.00" from="436945579#0" to="232725809" type="cyc__bicycle"/>
    <trip id="cyc_49" depart="147.00" from="318825723" to="1135566095#0" type="cyc__bicycle"/>
    <trip id="cyc_50" depart="150.00" from="-1094661232#2" to="480077795" type="cyc__bicycle"/>
    <trip id="cyc_51" depart="153.00" from="35085535#1" to="-49796159" type="cyc__bicycle"/>
    <trip id="cyc_52" depart="156.00" from="211557609#2" to="211557608#2" type="cyc__bicycle"/>
    <trip id="cyc_53" depart="159.00" from="1018951434" to="1018951432" type="cyc__bicycle"/>
    <trip id="cyc_54" depart="162.00" from="256633379#2" to="4253794" type="cyc__bicycle"/>
    <trip id="cyc_55" depart="165.00" from="423007010#2" to="210447794#3" type="cyc__bicycle"/>
    <trip id="cyc_56" depart="168.00" from="-1018951425" to="-542471105#2" type="cyc__bicycle"/>
    <trip id="cyc_57" depart="171.00" from="-440868727" to="38748498#0" type="cyc__bicycle"/>
    <trip id="cyc_58" depart="174.00" from="4480717#0" to="436943364#0" type="cyc__bicycle"/>
    <trip id="cyc_59" depart="177.00" from="436938220#2" to="4370948" type="cyc__bicycle"/>
    <trip id="cyc_60" depart="180.00" from="-757744789#0" to="4376571#0" type="cyc__bicycle"/>
    <trip id="cyc_61" depart="183.00" from="4254010#1" to="-256633379#1" type="cyc__bicycle"/>
    <trip id="cyc_62" depart="186.00" from="-1018951417" to="-1018951417" type="cyc__bicycle"/>
    <trip id="cyc_63" depart="189.00" from="4358462#0" to="-757744789#0" type="cyc__bicycle"/>
    <trip id="cyc_64" depart="192.00" from="-4082560" to="4253794" type="cyc__bicycle"/>
    <trip id="cyc_65" depart="195.00" from="1018951429" to="-1135568899" type="cyc__bicycle"/>
    <trip id="cyc_66" depart="198.00" from="-4370987" to="256633379#2" type="cyc__bicycle"/>
    <trip id="cyc_67" depart="201.00" from="-4370989" to="1018924456" type="cyc__bicycle"/>
    <trip id="cyc_68" depart="204.00" from="4356147" to="210447794#0" type="cyc__bicycle"/>
    <trip id="cyc_69" depart="207.00" from="1018951421#0" to="211489808#0" type="cyc__bicycle"/>
    <trip id="cyc_70" depart="210.00" from="-1018951419" to="1094661232#0" type="cyc__bicycle"/>
    <trip id="cyc_71" depart="213.00" from="1135565526#0" to="-480077795" type="cyc__bicycle"/>
    <trip id="cyc_72" depart="216.00" from="-4082560" to="507776882" type="cyc__bicycle"/>
    <trip id="cyc_73" depart="219.00" from="215065448#0" to="-49798175" type="cyc__bicycle"/>
    <trip id="cyc_74" depart="222.00" from="423007010#0" to="4370948" type="cyc__bicycle"/>
    <trip id="cyc_75" depart="225.00" from="-1018951418" to="-1018951418" type="cyc__bicycle"/>
    <trip id="cyc_76" depart="228.00" from="-436938229" to="4358438" type="cyc__bicycle"/>
    <trip id="cyc_77" depart="231.00" from="-4370987" to="4356148" type="cyc__bicycle"/>
    <trip id="cyc_78" depart="234.00" from="4254981" to="262200663#3" type="cyc__bicycle"/>
    <trip id="cyc_79" depart="237.00" from="-53638574" to="673569250" type="cyc__bicycle"/>
    <trip id="cyc_80" depart="240.00" from="436938220#2" to="232725809" type="cyc__bicycle"/>
    <trip id="cyc_81" depart="243.00" from="-53638574" to="4253891" type="cyc__bicycle"/>
    <trip id="cyc_82" depart="246.00" from="1094661232#0" to="38310154#0" type="cyc__bicycle"/>
    <trip id="cyc_83" depart="249.00" from="1018951421#0" to="4253812#1" type="cyc__bicycle"/>
    <trip id="cyc_84" depart="252.00" from="-1126473307#1" to="1018951416" type="cyc__bicycle"/>
    <trip id="cyc_85" depart="255.00" from="669229893#0" to="480077807" type="cyc__bicycle"/>
    <trip id="cyc_86" depart="258.00" from="1018951417" to="462641798" type="cyc__bicycle"/>
    <trip id="cyc_87" depart="261.00" from="1018951418" to="570827697" type="cyc__bicycle"/>
    <trip id="cyc_88" depart="264.00" from="4358456" to="1135565526#0" type="cyc__bicycle"/>
    <trip id="cyc_89" depart="267.00" from="-669229893#0" to="-1018951414" type="cyc__bicycle"/>
    <trip id="cyc_90" depart="270.00" from="480077798" to="-1018951433" type="cyc__bicycle"/>
    <trip id="cyc_91" depart="273.00" from="4370889#0" to="669229893#0" type="cyc__bicycle"/>
    <trip id="cyc_92" depart="276.00" from="35085535#1" to="-4376570" type="cyc__bicycle"/>
    <trip id="cyc_93" depart="279.00" from="462641800#0" to="673569250" type="cyc__bicycle"/>
    <trip id="cyc_94" depart="282.00" from="4356102" to="23198010" type="cyc__bicycle"/>
    <trip id="cyc_95" depart="285.00" from="1067635382" to="1018951432" type="cyc__bicycle"/>
    <trip id="cyc_96" depart="288.00" from="-49796165" to="43118736#0" type="cyc__bicycle"/>
    <trip id="cyc_97" depart="291.00" from="1135566095#0" to="-480077807" type="cyc__bicycle"/>
    <trip id="cyc_98" depart="294.00" from="-399696957" to="4254010#3" type="cyc__bicycle"/>
    <trip id="cyc_99" depart="297.00" from="1018951414" to="215065448#0" type="cyc__bicycle"/>
    <trip id="cyc_100" depart="300.00" from="1018951422#0" to="480077798" type="cyc__bicycle"/>
    <trip id="cyc_101" depart="303.00" from="498958813#0" to="-1018951418" type="cyc__bicycle"/>
    <trip id="cyc_102" depart="306.00" from="-480954362" to="1018951427#0" type="cyc__bicycle"/>
    <trip id="cyc_103" depart="309.00" from="68543461#0" to="4369050#0" type="cyc__bicycle"/>
    <trip id="cyc_104" depart="312.00" from="1018951428#0" to="-498958813#0" type="cyc__bicycle"/>
    <trip id="cyc_105" depart="315.00" from="4254010#1" to="4376570" type="cyc__bicycle"/>
    <trip id="cyc_106" depart="318.00" from="542471106" to="1018951432" type="cyc__bicycle"/>
    <trip id="cyc_107" depart="321.00" from="480077807" to="4356098#1" type="cyc__bicycle"/>
    <trip id="cyc_108" depart="324.00" from="211489808#0" to="68543461#1" type="cyc__bicycle"/>
    <trip id="cyc_109" depart="327.00" from="-542471105#5" to="4358454#0" type="cyc__bicycle"/>
    <trip id="cyc_110" depart="330.00" from="-256633379#1" to="-4373994" type="cyc__bicycle"/>
    <trip id="cyc_111" depart="333.00" from="53876136" to="-498958813#0" type="cyc__bicycle"/>
    <trip id="cyc_112" depart="336.00" from="4358462#1" to="4082560" type="cyc__bicycle"/>
    <trip id="cyc_113" depart="339.00" from="4370989" to="1065112862" type="cyc__bicycle"/>
    <trip id="cyc_114" depart="342.00" from="1018951428#0" to="1018951414" type="cyc__bicycle"/>
    <trip id="cyc_115" depart="345.00" from="462641798" to="423007010#1" type="cyc__bicycle"/>
    <trip id="cyc_116" depart="348.00" from="603198589" to="49798175" type="cyc__bicycle"/>
    <trip id="cyc_117" depart="351.00" from="-4360148" to="290405994" type="cyc__bicycle"/>
    <trip id="cyc_118" depart="354.00" from="-399696957" to="-1044356411" type="cyc__bicycle"/>
    <trip id="cyc_119" depart="357.00" from="-136097421" to="480012236" type="cyc__bicycle"/>
    <trip id="cyc_120" depart="360.00" from="4369048#0" to="4370988" type="cyc__bicycle"/>
    <trip id="cyc_121" depart="363.00" from="1018951428#0" to="4253785" type="cyc__bicycle"/>
    <trip id="cyc_122" depart="366.00" from="4362731" to="1067635384" type="cyc__bicycle"/>
    <trip id="cyc_123" depart="369.00" from="35085535#1" to="-53876143" type="cyc__bicycle"/>
    <trip id="cyc_124" depart="372.00" from="-256633379#0" to="1018924455" type="cyc__bicycle"/>
    <trip id="cyc_125" depart="375.00" from="49796165" to="35085535#0" type="cyc__bicycle"/>
    <trip id="cyc_126" depart="378.00" from="542471105#1" to="210447794#3" type="cyc__bicycle"/>
    <trip id="cyc_127" depart="381.00" from="1018924456" to="436938220#0" type="cyc__bicycle"/>
    <trip id="cyc_128" depart="384.00" from="4370948" to="-1018951416" type="cyc__bicycle"/>
    <trip id="cyc_129" depart="387.00" from="4254010#0" to="-38310154#0" type="cyc__bicycle"/>
    <trip id="cyc_130" depart="390.00" from="-4356148" to="49798175" type="cyc__bicycle"/>
    <trip id="cyc_131" depart="393.00" from="-1044356411" to="-570827698" type="cyc__bicycle"/>
    <trip id="cyc_132" depart="396.00" from="68543461#0" to="1135565526#1" type="cyc__bicycle"/>
    <trip id="cyc_133" depart="399.00" from="-4358432#0" to="-4373994" type="cyc__bicycle"/>
    <trip id="cyc_134" depart="402.00" from="-570827697" to="4358462#0" type="cyc__bicycle"/>
    <trip id="cyc_135" depart="405.00" from="-399696957" to="53876143" type="cyc__bicycle"/>
    <trip id="cyc_136" depart="408.00" from="1067635382" to="673569249" type="cyc__bicycle"/>
    <trip id="cyc_137" depart="411.00" from="53638574" to="1018951415#0" type="cyc__bicycle"/>
    <trip id="cyc_138" depart="414.00" from="-757744789#0" to="211489821#0" type="cyc__bicycle"/>
    <trip id="cyc_139" depart="417.00" from="-38329792" to="4253894" type="cyc__bicycle"/>
    <trip id="cyc_140" depart="420.00" from="-1018951433" to="-1018951414" type="cyc__bicycle"/>
    <trip id="cyc_141" depart="423.00" from="673956940" to="1018951415#0" type="cyc__bicycle"/>
    <trip id="cyc_142" depart="426.00" from="399696957" to="136097421" type="cyc__bicycle"/>
    <trip id="cyc_143" depart="429.00" from="1018951419" to="-1131262160" type="cyc__bicycle"/>
    <trip id="cyc_144" depart="432.00" from="53876136" to="673025496" type="cyc__bicycle"/>
    <trip id="cyc_145" depart="435.00" from="669229893#0" to="-4356148" type="cyc__bicycle"/>
    <trip id="cyc_146" depart="438.00" from="-498958813#0" to="4253790" type="cyc__bicycle"/>
    <trip id="cyc_147" depart="441.00" from="673569250" to="262200663#2" type="cyc__bicycle"/>
    <trip id="cyc_148" depart="444.00" from="43486254#0" to="4254010#1" type="cyc__bicycle"/>
    <trip id="cyc_149" depart="447.00" from="-980758926" to="262200663#2" type="cyc__bicycle"/>
    <trip id="cyc_150" depart="450.00" from="1018951417" to="-669229893#0" type="cyc__bicycle"/>
    <trip id="cyc_151" depart="453.00" from="-256633379#0" to="1018945233" type="cyc__bicycle"/>
    <trip id="cyc_152" depart="456.00" from="673956940" to="136097421" type="cyc__bicycle"/>
    <trip id="cyc_153" depart="459.00" from="4253875" to="4253830" type="cyc__bicycle"/>
    <trip id="cyc_154" depart="462.00" from="542471107#2" to="1094661232#3" type="cyc__bicycle"/>
    <trip id="cyc_155" depart="465.00" from="1018951417" to="1018951427#0" type="cyc__bicycle"/>
    <trip id="cyc_156" depart="468.00" from="1018951420" to="4376573" type="cyc__bicycle"/>
    <trip id="cyc_157" depart="471.00" from="49798175" to="1018951417" type="cyc__bicycle"/>
    <trip id="cyc_158" depart="474.00" from="1018951427#2" to="262200663#3" type="cyc__bicycle"/>
    <trip id="cyc_159" depart="477.00" from="38310154#0" to="4082552" type="cyc__bicycle"/>
    <trip id="cyc_160" depart="480.00" from="-570827698" to="-1018951418" type="cyc__bicycle"/>
    <trip id="cyc_161" depart="483.00" from="-570827698" to="-136097421" type="cyc__bicycle"/>
    <trip id="cyc_162" depart="486.00" from="262200663#2" to="-1135568899" type="cyc__bicycle"/>
    <trip id="cyc_163" depart="489.00" from="-136097421" to="4253812#2" type="cyc__bicycle"/>
    <trip id="cyc_164" depart="492.00" from="1018945234#0" to="436938220#2" type="cyc__bicycle"/>
    <trip id="cyc_165" depart="495.00" from="211557607#0" to="462641800#0" type="cyc__bicycle"/>
    <trip id="cyc_166" depart="498.00" from="-4370948" to="2263971#0" type="cyc__bicycle"/>
    <trip id="cyc_167" depart="501.00" from="436938220#0" to="-211487026#1" type="cyc__bicycle"/>
    <trip id="cyc_168" depart="504.00" from="570827698" to="-4376570" type="cyc__bicycle"/>
    <trip id="cyc_169" depart="507.00" from="4362701#0" to="68543461#1" type="cyc__bicycle"/>
    <trip id="cyc_170" depart="510.00" from="4370889#0" to="1018951422#0" type="cyc__bicycle"/>
    <trip id="cyc_171" depart="513.00" from="-4082552" to="232725808" type="cyc__bicycle"/>
    <trip id="cyc_172" depart="516.00" from="542471105#0" to="1018951414" type="cyc__bicycle"/>
    <trip id="cyc_173" depart="519.00" from="49798175" to="-4362732" type="cyc__bicycle"/>
    <trip id="cyc_174" depart="522.00" from="53638574" to="-1018951429" type="cyc__bicycle"/>
    <trip id="cyc_175" depart="525.00" from="1018951419" to="53638574" type="cyc__bicycle"/>
    <trip id="cyc_176" depart="528.00" from="436943364#0" to="53876136" type="cyc__bicycle"/>
    <trip id="cyc_177" depart="531.00" from="4370989" to="4358462#1" type="cyc__bicycle"/>
    <trip id="cyc_178" depart="534.00" from="43491848#0" to="-4480717#2" type="cyc__bicycle"/>
    <trip id="cyc_179" depart="537.00" from="1135566095#0" to="-4370987" type="cyc__bicycle"/>
    <trip id="cyc_180" depart="540.00" from="4356148" to="4254981" type="cyc__bicycle"/>
    <trip id="cyc_181" depart="543.00" from="-757744789#0" to="-1135568898" type="cyc__bicycle"/>
    <trip id="cyc_182" depart="546.00" from="659406290" to="4370886" type="cyc__bicycle"/>
    <trip id="cyc_183" depart="549.00" from="262200663#1" to="262200663#2" type="cyc__bicycle"/>
    <trip id="cyc_184" depart="552.00" from="4376571#0" to="193420534" type="cyc__bicycle"/>
    <trip id="cyc_185" depart="555.00" from="1094661232#3" to="1018951429" type="cyc__bicycle"/>
    <trip id="cyc_186" depart="558.00" from="-980758926" to="-1018951419" type="cyc__bicycle"/>
    <trip id="cyc_187" depart="561.00" from="4253812#3" to="1135565526#0" type="cyc__bicycle"/>
    <trip id="cyc_188" depart="564.00" from="35085535#1" to="-1131262160" type="cyc__bicycle"/>
    <trip id="cyc_189" depart="567.00" from="1018951433" to="-4362731" type="cyc__bicycle"/>
    <trip id="cyc_190" depart="570.00" from="-4358462#0" to="-993439404" type="cyc__bicycle"/>
    <trip id="cyc_191" depart="573.00" from="4370952" to="1131262161#0" type="cyc__bicycle"/>
    <trip id="cyc_192" depart="576.00" from="1131262158" to="4253785" type="cyc__bicycle"/>
    <trip id="cyc_193" depart="579.00" from="-542471105#2" to="-1018951414" type="cyc__bicycle"/>
    <trip id="cyc_194" depart="582.00" from="232725809" to="215065448#0" type="cyc__bicycle"/>
    <trip id="cyc_195" depart="585.00" from="4253830" to="1135566097" type="cyc__bicycle"/>
    <trip id="cyc_196" depart="588.00" from="43486254#0" to="4358455" type="cyc__bicycle"/>
    <trip id="cyc_197" depart="591.00" from="-570827697" to="211557609#2" type="cyc__bicycle"/>
    <trip id="cyc_198" depart="594.00" from="211486426#0" to="-542471105#0" type="cyc__bicycle"/>
    <trip id="cyc_199" depart="597.00" from="1135545587" to="325008374#0" type="cyc__bicycle"/>
    <trip id="cyc_200" depart="600.00" from="507776882" to="542471105#1" type="cyc__bicycle"/>
    <trip id="cyc_201" depart="603.00" from="1018924456" to="4253875" type="cyc__bicycle"/>
    <trip id="cyc_202" depart="606.00" from="-1067635380" to="-136097421" type="cyc__bicycle"/>
    <trip id="cyc_203" depart="609.00" from="2263971#0" to="480077807" type="cyc__bicycle"/>
    <trip id="cyc_204" depart="612.00" from="-4370987" to="4362701#0" type="cyc__bicycle"/>
    <trip id="cyc_205" depart="615.00" from="480077807" to="1018951420" type="cyc__bicycle"/>
    <trip id="cyc_206" depart="618.00" from="4356098#0" to="4376573" type="cyc__bicycle"/>
    <trip id="cyc_207" depart="621.00" from="1065112862" to="4356147" type="cyc__bicycle"/>
    <trip id="cyc_208" depart="624.00" from="4358454#0" to="4082552" type="cyc__bicycle"/>
    <trip id="cyc_209" depart="627.00" from="4376572" to="498958813#2" type="cyc__bicycle"/>
    <trip id="cyc_210" depart="630.00" from="647037413" to="35085536#0" type="cyc__bicycle"/>
    <trip id="cyc_211" depart="633.00" from="-4376570" to="-757744789#0" type="cyc__bicycle"/>
    <trip id="cyc_212" depart="636.00" from="-498958813#2" to="35085536#0" type="cyc__bicycle"/>
    <trip id="cyc_213" depart="639.00" from="4358462#1" to="-1067635384" type="cyc__bicycle"/>
    <trip id="cyc_214" depart="642.00" from="43118736#0" to="4358431" type="cyc__bicycle"/>
    <trip id="cyc_215" depart="645.00" from="1018951431" to="232725808" type="cyc__bicycle"/>
    <trip id="cyc_216" depart="648.00" from="-4370988" to="4358455" type="cyc__bicycle"/>
    <trip id="cyc_217" depart="651.00" from="-1044356411" to="68543461#0" type="cyc__bicycle"/>
    <trip id="cyc_218" depart="654.00" from="436945579#0" to="4253812#0" type="cyc__bicycle"/>
    <trip id="cyc_219" depart="657.00" from="1018924454" to="542471105#0" type="cyc__bicycle"/>
    <trip id="cyc_220" depart="660.00" from="647037413" to="-4362732" type="cyc__bicycle"/>
    <trip id="cyc_221" depart="663.00" from="4362701#0" to="4376571#0" type="cyc__bicycle"/>
    <trip id="cyc_222" depart="666.00" from="4253894" to="4356147" type="cyc__bicycle"/>
    <trip id="cyc_223" depart="669.00" from="1135566097" to="542471106" type="cyc__bicycle"/>
    <trip id="cyc_224" depart="672.00" from="673025496" to="1067635385#0" type="cyc__bicycle"/>
    <trip id="cyc_225" depart="675.00" from="436938229" to="1135566096#0" type="cyc__bicycle"/>
    <trip id="cyc_226" depart="678.00" from="-4370988" to="1018951424" type="cyc__bicycle"/>
    <trip id="cyc_227" depart="681.00" from="-4358462#1" to="53876143" type="cyc__bicycle"/>
    <trip id="cyc_228" depart="684.00" from="647037413" to="-4358441" type="cyc__bicycle"/>
    <trip id="cyc_229" depart="687.00" from="4082552" to="1135565524#0" type="cyc__bicycle"/>
    <trip id="cyc_230" depart="690.00" from="-4358432#0" to="1018951415#0" type="cyc__bicycle"/>
    <trip id="cyc_231" depart="693.00" from="-570827699" to="4358790" type="cyc__bicycle"/>
    <trip id="cyc_232" depart="696.00" from="-1018945233" to="-480077798" type="cyc__bicycle"/>
    <trip id="cyc_233" depart="699.00" from="1135566095#1" to="-1018951418" type="cyc__bicycle"/>
    <trip id="cyc_234" depart="702.00" from="4253792" to="423007010#2" type="cyc__bicycle"/>
    <trip id="cyc_235" depart="705.00" from="4370988" to="-49798175" type="cyc__bicycle"/>
    <trip id="cyc_236" depart="708.00" from="1018945232" to="262200663#2" type="cyc__bicycle"/>
    <trip id="cyc_237" depart="711.00" from="1018924455" to="38748498#0" type="cyc__bicycle"/>
    <trip id="cyc_238" depart="714.00" from="-669229893#0" to="4356098#0" type="cyc__bicycle"/>
    <trip id="cyc_239" depart="717.00" from="4369050#0" to="4370886" type="cyc__bicycle"/>
    <trip id="cyc_240" depart="720.00" from="673025496" to="262200663#3" type="cyc__bicycle"/>
    <trip id="cyc_241" depart="723.00" from="211557607#0" to="4480717#0" type="cyc__bicycle"/>
    <trip id="cyc_242" depart="726.00" from="4360147" to="35085536#0" type="cyc__bicycle"/>
    <trip id="cyc_243" depart="729.00" from="1067635384" to="1018945233" type="cyc__bicycle"/>
    <trip id="cyc_244" depart="732.00" from="-4082552" to="4370886" type="cyc__bicycle"/>
    <trip id="cyc_245" depart="735.00" from="-4358432#0" to="4358462#1" type="cyc__bicycle"/>
    <trip id="cyc_246" depart="738.00" from="262200663#0" to="669229894#0" type="cyc__bicycle"/>
    <trip id="cyc_247" depart="741.00" from="4358790" to="673569249" type="cyc__bicycle"/>
    <trip id="cyc_248" depart="744.00" from="-4360148" to="215065448#0" type="cyc__bicycle"/>
    <trip id="cyc_249" depart="747.00" from="35085535#1" to="1018951419" type="cyc__bicycle"/>
    <trip id="cyc_250" depart="750.00" from="211557609#1" to="1024601863#0" type="cyc__bicycle"/>
    <trip id="cyc_251" depart="753.00" from="232725809" to="-1018945232" type="cyc__bicycle"/>
    <trip id="cyc_252" depart="756.00" from="1135566096#0" to="136097421" type="cyc__bicycle"/>
    <trip id="cyc_253" depart="759.00" from="1018951416" to="1131262161#0" type="cyc__bicycle"/>
    <trip id="cyc_254" depart="762.00" from="4362732" to="4356098#0" type="cyc__bicycle"/>
    <trip id="cyc_255" depart="765.00" from="211557607#0" to="4253891" type="cyc__bicycle"/>
    <trip id="cyc_256" depart="768.00" from="1067635381" to="-49796165" type="cyc__bicycle"/>
    <trip id="cyc_257" depart="771.00" from="-1018945233" to="1018945232" type="cyc__bicycle"/>
    <trip id="cyc_258" depart="774.00" from="4082552" to="49796165" type="cyc__bicycle"/>
    <trip id="cyc_259" depart="777.00" from="4370952" to="23198010" type="cyc__bicycle"/>
    <trip id="cyc_260" depart="780.00" from="68543461#0" to="210500025#0" type="cyc__bicycle"/>
    <trip id="cyc_261" depart="783.00" from="4370987" to="1135565524#0" type="cyc__bicycle"/>
    <trip id="cyc_262" depart="786.00" from="4358456" to="757744789#1" type="cyc__bicycle"/>
    <trip id="cyc_263" depart="789.00" from="1018951416" to="-4373994" type="cyc__bicycle"/>
    <trip id="cyc_264" depart="792.00" from="4253785" to="262200662#0" type="cyc__bicycle"/>
    <trip id="cyc_265" depart="795.00" from="1018951434" to="-1018945232" type="cyc__bicycle"/>
    <trip id="cyc_266" depart="798.00" from="1093694666" to="1135566095#0" type="cyc__bicycle"/>
    <trip id="cyc_267" depart="801.00" from="1131262161#0" to="462641800#0" type="cyc__bicycle"/>
    <trip id="cyc_268" depart="804.00" from="38329792" to="4358456" type="cyc__bicycle"/>
    <trip id="cyc_269" depart="807.00" from="498958813#0" to="4358462#1" type="cyc__bicycle"/>
    <trip id="cyc_270" depart="810.00" from="211557607#0" to="4358462#1" type="cyc__bicycle"/>
    <trip id="cyc_271" depart="813.00" from="4253812#2" to="4253891" type="cyc__bicycle"/>
    <trip id="cyc_272" depart="816.00" from="4253794" to="1135545587" type="cyc__bicycle"/>
    <trip id="cyc_273" depart="819.00" from="4253792" to="4253812#2" type="cyc__bicycle"/>
    <trip id="cyc_274" depart="822.00" from="542471107#1" to="4369048#0" type="cyc__bicycle"/>
    <trip id="cyc_275" depart="825.00" from="4376570" to="4362701#0" type="cyc__bicycle"/>
    <trip id="cyc_276" depart="828.00" from="4370886" to="423007010#2" type="cyc__bicycle"/>
    <trip id="cyc_277" depart="831.00" from="1018951432" to="1018924454" type="cyc__bicycle"/>
    <trip id="cyc_278" depart="834.00" from="4356104" to="480077807" type="cyc__bicycle"/>
    <trip id="cyc_279" depart="837.00" from="262200663#0" to="-4370948" type="cyc__bicycle"/>
    <trip id="cyc_280" depart="840.00" from="4370987" to="211557608#0" type="cyc__bicycle"/>
    <trip id="cyc_281" depart="843.00" from="210447794#0" to="-1065127950" type="cyc__bicycle"/>
    <trip id="cyc_282" depart="846.00" from="215065448#0" to="4358462#0" type="cyc__bicycle"/>
    <trip id="cyc_283" depart="849.00" from="1135565526#0" to="1024601863#0" type="cyc__bicycle"/>
    <trip id="cyc_284" depart="852.00" from="4253891" to="-1018951418" type="cyc__bicycle"/>
    <trip id="cyc_285" depart="855.00" from="211557609#2" to="570827699" type="cyc__bicycle"/>
    <trip id="cyc_286" depart="858.00" from="43491848#0" to="1131283657#0" type="cyc__bicycle"/>
    <trip id="cyc_287" depart="861.00" from="43491848#0" to="423007010#2" type="cyc__bicycle"/>
    <trip id="cyc_288" depart="864.00" from="-49796165" to="-49798175" type="cyc__bicycle"/>
    <trip id="cyc_289" depart="867.00" from="480954362" to="1018924455" type="cyc__bicycle"/>
    <trip id="cyc_290" depart="870.00" from="-136097421" to="4370989" type="cyc__bicycle"/>
    <trip id="cyc_291" depart="873.00" from="232725808" to="1065112862" type="cyc__bicycle"/>
    <trip id="cyc_292" depart="876.00" from="2263971#0" to="4358461#0" type="cyc__bicycle"/>
    <trip id="cyc_293" depart="879.00" from="-4370989" to="4253894" type="cyc__bicycle"/>
    <trip id="cyc_294" depart="882.00" from="4356147" to="4370948" type="cyc__bicycle"/>
    <trip id="cyc_295" depart="885.00" from="1018924454" to="4253776" type="cyc__bicycle"/>
    <trip id="cyc_296" depart="888.00" from="-542471105#2" to="325008374#0" type="cyc__bicycle"/>
    <trip id="cyc_297" depart="891.00" from="-4373994" to="436938220#2" type="cyc__bicycle"/>
    <trip id="cyc_298" depart="894.00" from="462641798" to="1018951427#2" type="cyc__bicycle"/>
    <trip id="cyc_299" depart="897.00" from="-53638574" to="669229893#0" type="cyc__bicycle"/>
    <trip id="cyc_300" depart="900.00" from="4356104" to="4376572" type="cyc__bicycle"/>
    <trip id="cyc_301" depart="903.00" from="-1018951429" to="507776882" type="cyc__bicycle"/>
    <trip id="cyc_302" depart="906.00" from="4253790" to="1018951421#0" type="cyc__bicycle"/>
    <trip id="cyc_303" depart="909.00" from="1135566095#0" to="4360147" type="cyc__bicycle"/>
    <trip id="cyc_304" depart="912.00" from="4362732" to="-480077798" type="cyc__bicycle"/>
    <trip id="cyc_305" depart="915.00" from="4253792" to="-4370989" type="cyc__bicycle"/>
    <trip id="cyc_306" depart="918.00" from="673025496" to="1135566870" type="cyc__bicycle"/>
    <trip id="cyc_307" depart="921.00" from="53876136" to="4358455" type="cyc__bicycle"/>
    <trip id="cyc_308" depart="924.00" from="423007010#0" to="-993439412" type="cyc__bicycle"/>
    <trip id="cyc_309" depart="927.00" from="232725809" to="-4362732" type="cyc__bicycle"/>
    <trip id="cyc_310" depart="930.00" from="-4362731" to="4358431" type="cyc__bicycle"/>
    <trip id="cyc_311" depart="933.00" from="1024601863#0" to="4358790" type="cyc__bicycle"/>
    <trip id="cyc_312" depart="936.00" from="-570827697" to="4358438" type="cyc__bicycle"/>