<?xml version="1.0" encoding="UTF-8"?>

<!-- generated on 2023-04-21 09:16:40 by Eclipse SUMO duarouter Version 1.16.0
<configuration xmlns:xsi="http://www.w3.org/2001/XMLSchema-instance" xsi:noNamespaceSchemaLocation="http://sumo.dlr.de/xsd/duarouterConfiguration.xsd">

    <input>
        <net-file value="osm.net.xml.gz"/>
        <route-files value="veh_passenger.trips.xml"/>
    </input>

    <output>
        <output-file value="PicadilyPassenger.rou.xml"/>
    </output>

    <processing>
        <repair.from value="t"/>
        <repair.to value="t"/>
    </processing>

    <report>
        <ignore-errors value="true"/>
    </report>

</configuration>
-->

<routes xmlns:xsi="http://www.w3.org/2001/XMLSchema-instance" xsi:noNamespaceSchemaLocation="http://sumo.dlr.de/xsd/routes_file.xsd">
    <vType id="veh__passenger" vClass="passenger"/>
    <vehicle id="veh_0" type="veh__passenger" depart="0.00">
        <route edges="-542471105#5 -542471105#2 -542471105#0 542471106 4358454#0 4369048#0 35085535#0 35085535#1 436945579#0 436945579#1 2263976 462641798 1018924455 1018924456 462641800#0 35085536#0 4376571#0"/>
    </vehicle>
    <vehicle id="veh_1" type="veh__passenger" depart="3.00">
        <route edges="4360146 4360147 1065112862 210500025#0 2263971#0 603198589 4356104 318825723 -498958813#2 -498958813#0 4358790 4356147 436945579#0 436945579#1 2263976 462641798 1018924455 1018924456 462641800#0 35085536#0 4376571#0 210447794#3 193420534 436943364#0 1018945233 1018943769 436938229 1018951434 1018951432 1067635382 1018951427#0 1018951428#0 1018951429 1018951431 1018951433"/>
    </vehicle>
    <vehicle id="veh_3" type="veh__passenger" depart="9.00">
        <route edges="4259271#0 1018951422#0 1018951417 38748498#0 38748498#2 1018951420 1064360339#0 1018951427#2 1067635381 1018951424 1018951419 436938220#0"/>
    </vehicle>
    <vehicle id="veh_4" type="veh__passenger" depart="12.00">
        <route edges="-49796159 4358455 -980758926 49796165 -4356148"/>
    </vehicle>
    <vehicle id="veh_5" type="veh__passenger" depart="15.00">
        <route edges="4370943 1067635384 1067635385#0 232725809 669229893#0 232725808 1135566870 211557609#0 211557609#1 211557609#2"/>
    </vehicle>
    <vehicle id="veh_6" type="veh__passenger" depart="18.00">
        <route edges="4360146 4360147 1065112862 210500025#0 2263971#0 603198589 4356104 318825723 -498958813#2 -498958813#0 4358790 23198010 4356098#1 4253972#0 542471105#3 1094661232#0 1094661232#3 -1065127950"/>
    </vehicle>
    <vehicle id="veh_7" type="veh__passenger" depart="21.00">
        <route edges="211557609#1 211557609#2 1135566096#0 1135566095#0 1135566095#1 1135565527#0 1135565526#0 1135565526#1 4376571#0 215065448#0 4369048#0 35085535#0 35085535#1 436945579#0 436945579#1 2263976 462641798 1018924455 1018924456 462641800#0 4358461#0"/>
    </vehicle>
    <vehicle id="veh_9" type="veh__passenger" depart="27.00">
        <route edges="498958813#2 -498958813#2 -498958813#0 4356148 -49796165 49796165 -4356148"/>
    </vehicle>
    <vehicle id="veh_10" type="veh__passenger" depart="30.00">
        <route edges="-4082560 4082560 -1094661232#2 -542471105#5 -542471105#2 -542471105#0 542471106 4358454#0 4369048#0 35085535#0 35085535#1 436945579#0 436945579#1 2263976 462641798 1018924455 1018924456 462641800#0 35085536#0 4376571#0 210447794#3 193420534 436943364#0 1018945233 1018943769 436938229 1018951434 1018951432 1067635382 1018951427#0 1018951428#0 1018951429 1018951431 1018951433 399696957"/>
    </vehicle>
    <vehicle id="veh_12" type="veh__passenger" depart="36.00">
        <route edges="1018951420 1064360339#0 1018951428#0 1018951429 1018951431 1018951433 399696957 1018945234#0 1018945232 43118736#0 210447794#3 1135565524#0 1135565525#0 1135566097 1135566098#0 211486426#0 211557608#0 211557608#2"/>
    </vehicle>
    <vehicle id="veh_13" type="veh__passenger" depart="39.00">
        <route edges="-4356148 4358790 4356147 436945579#0 436945579#1 2263976 462641798 1018924455 1018924456 462641800#0 35085536#0 4376571#0 210447794#3 193420534 436943364#0 1018945233 1018943769 436938229 1018951434 1018951432 1067635382 1018951427#0 1018951427#2 1067635381 1018951424"/>
    </vehicle>
    <vehicle id="veh_15" type="veh__passenger" depart="45.00">
        <route edges="1018951427#0 1018951427#2"/>
    </vehicle>
    <vehicle id="veh_18" type="veh__passenger" depart="54.00">
        <route edges="4370948 -4370948 38310154#1 1135566095#1 1135565527#0 1135565526#0 1135565526#1 193420534 436943364#0 1018945233 4253891 290405994 4253776 673569249 4253790 423007010#2"/>
    </vehicle>
    <vehicle id="veh_21" type="veh__passenger" depart="63.00">
        <route edges="-53876143 4356102 1018924455 1018924456 462641800#0 35085536#0 1135565524#0 1135565525#0"/>
    </vehicle>
    <vehicle id="veh_22" type="veh__passenger" depart="66.00">
        <route edges="4358441 4360148 -4360148 -4358441 462641800#0 4358421#0 757744789#1 35085535#0 35085535#1 436945579#0 4358431 647037413 659406290 -49796159 4358455"/>
    </vehicle>
    <vehicle id="veh_23" type="veh__passenger" depart="69.00">
        <route edges="542471106 4358454#0 4369048#0 35085535#0 35085535#1 436945579#0 436945579#1 2263976 462641798 1018924455 1018924456 462641800#0 4358461#0 4358461#2 4362701#0 211557608#2"/>
    </vehicle>
    <vehicle id="veh_24" type="veh__passenger" depart="72.00">
        <route edges="4370889#0 1018951428#0 1018951429 1018951431 1018951433 399696957 1018945234#0 1018945232 43118736#0 215065448#0 4369048#0 35085535#0 35085535#1 436945579#0 436945579#1 53876136 1065112862 210500025#0 2263971#0 603198589 4356104"/>
    </vehicle>
    <vehicle id="veh_25" type="veh__passenger" depart="75.00">
        <route edges="1067635385#0 232725809 669229893#0 232725808 1135566870 211557609#0 211557609#1 1135545587 4370889#0 1131262161#0 1044356411 4253812#0 4253812#1"/>
    </vehicle>
    <vehicle id="veh_26" type="veh__passenger" depart="78.00">
        <route edges="462641800#0 35085536#0 4376571#0 43486254#0 211487026#0 4376580 542471105#0 542471105#1 542471105#3 68543461#0 -4376570 4376570"/>
    </vehicle>
    <vehicle id="veh_27" type="veh__passenger" depart="81.00">
        <route edges="318825723 -498958813#2 -498958813#0 4358790 4356147 436945579#0 436945579#1 2263976 462641798 1018924455 1018924456 462641800#0 35085536#0 4376571#0 210447794#3 193420534 436943364#0 1018945233 4253891 290405994 4253812#0 4253812#1"/>
    </vehicle>
    <vehicle id="veh_28" type="veh__passenger" depart="84.00">
        <route edges="-4358441 462641800#0 35085536#0 4376571#0 210447794#3 193420534 436943364#0 1018945233 1018943769 436938229 1018951434 1018951432 1067635382 1018951427#0 1018951428#0 1018951429"/>
    </vehicle>
    <vehicle id="veh_30" type="veh__passenger" depart="90.00">
        <route edges="1018945233 1018945234#0 1018945232 43118736#0 43486254#0 211487026#0 4376580 542471105#0 542471105#1 542471105#3 1094661232#0 -4082560 4082560"/>
    </vehicle>
    <vehicle id="veh_31" type="veh__passenger" depart="93.00">
        <route edges="4358421#0 757744789#1 35085535#0 35085535#1 436945579#0 436945579#1 53876136 1065112862 210500025#0 2263971#0 603198589 4356104"/>
    </vehicle>
    <vehicle id="veh_32" type="veh__passenger" depart="96.00">
        <route edges="1135566097 1135566098#0 211486426#0 232725808 1135566870 211557609#0 211557609#1 211557609#2 1135566096#0 1135566095#0 1135566095#1 1135565527#0 1135565526#0 1135565526#1 4376571#0 215065448#0"/>
    </vehicle>
    <vehicle id="veh_33" type="veh__passenger" depart="99.00">
        <route edges="325008374#0 -542471105#2 -542471105#0 542471106 4358454#0 4369048#0"/>
    </vehicle>
    <vehicle id="veh_34" type="veh__passenger" depart="102.00">
        <route edges="35085536#0 1135565524#0 1135565525#0 1135566097 1135566098#0 211486426#0"/>
    </vehicle>
    <vehicle id="veh_36" type="veh__passenger" depart="108.00">
        <route edges="-4358462#1 4358462#1 1093694666 -53876143 4356102 1018924455 1018924454 4358441"/>
    </vehicle>
    <vehicle id="veh_37" type="veh__passenger" depart="111.00">
        <route edges="673569250 4253785 4253812#1 4253812#2"/>
    </vehicle>
    <vehicle id="veh_39" type="veh__passenger" depart="117.00">
        <route edges="290405994 4253812#0 4253894 4254981 4376580 542471105#0 542471107#0 4370987 673956940"/>
    </vehicle>
    <vehicle id="veh_40" type="veh__passenger" depart="120.00">
        <route edges="4360148 -4360148 -4358441 462641800#0 35085536#0 4376571#0 210447794#3 193420534 436943364#0 1018945233 1018943769 436938229 1018951434 1018951432 1067635382 1018951427#0 1018951428#0 1018951429 1018951431 1018951433 399696957"/>
    </vehicle>
    <vehicle id="veh_42" type="veh__passenger" depart="126.00">
        <route edges="35085535#0 35085535#1 436945579#0 4358431 647037413 659406290"/>
    </vehicle>
    <vehicle id="veh_45" type="veh__passenger" depart="135.00">
        <route edges="603198589 4356104 318825723 -498958813#2 -498958813#0 4358790 23198010 4356098#1 4253972#0 542471105#3 1094661232#0 -1094661232#2"/>
    </vehicle>
    <vehicle id="veh_46" type="veh__passenger" depart="138.00">
        <route edges="4362732 -4362732 4358462#1 1093694666 -53876143 4356102 1018924455 1018924456 462641800#0 35085536#0 1135565524#0 1135565525#0 1135566097 1135566098#0 211486426#0 232725808 1135566870 211557609#0 211557609#1 211557609#2 1135566096#0 1135566095#0 -38310154#1 4370948"/>
    </vehicle>
    <vehicle id="veh_47" type="veh__passenger" depart="141.00">
        <route edges="462641800#0 4358421#0 757744789#1 35085535#0 35085535#1 436945579#0 4358431 647037413 -498958813#2 -498958813#0 4358790"/>
    </vehicle>
    <vehicle id="veh_48" type="veh__passenger" depart="144.00">
        <route edges="436938229 1018951434 1018951432 1067635382 1018951427#0 1018951428#0 1018951429 1018951431 1018951433 399696957 1018945234#0 1018945232 43118736#0 215065448#0 4369048#0 35085535#0 35085535#1 436945579#0 436945579#1 2263976 462641798 1018924455 1018924456 462641800#0 35085536#0"/>
    </vehicle>
    <vehicle id="veh_49" type="veh__passenger" depart="147.00">
        <route edges="423007010#1 423007010#2 262200662#0 38748498#2 1018951420 1064360339#0 1018951428#0 1018951429 1018951431 1018951433 399696957 1018945234#0 1018945232 43118736#0 210447794#3 1135565524#0 1135565525#0 1135566097 1135566098#0 211486426#0 232725808 1135566870 211557609#0"/>
    </vehicle>
    <vehicle id="veh_50" type="veh__passenger" depart="150.00">
        <route edges="-4362732 4358462#1 1093694666 -53876143 4356102 1018924455 1018924456 462641800#0"/>
    </vehicle>
    <vehicle id="veh_51" type="veh__passenger" depart="153.00">
        <route edges="423007010#2 262200662#0 436938220#2 1018951418"/>
    </vehicle>
    <vehicle id="veh_52" type="veh__passenger" depart="156.00">
        <route edges="318825723 -498958813#2 -498958813#0 4358790 23198010 4356098#1 4253972#0 -542471105#2 542471107#0 542471107#1 542471107#2 262200663#1 262200663#2 262200663#3"/>
    </vehicle>
    <vehicle id="veh_53" type="veh__passenger" depart="159.00">
        <route edges="1135565527#0"/>
    </vehicle>
    <vehicle id="veh_54" type="veh__passenger" depart="162.00">
        <route edges="38748498#0 38748498#2 1018951420 1064360339#0 1131262161#0 1044356411 4253812#0 4253812#1 4253812#2 4253812#3 4254010#0"/>
    </vehicle>
    <vehicle id="veh_55" type="veh__passenger" depart="165.00">
        <route edges="4253830 262200662#0 38748498#2 1018951420 1064360339#0 1018951428#0 1018951429 1018951431 1018951433 399696957 1018945234#0 1018945232 43118736#0 210447794#3 1135565524#0 1135565525#0 1135566097 1135566098#0 211486426#0 232725808"/>
    </vehicle>
    <vehicle id="veh_56" type="veh__passenger" depart="168.00">
        <route edges="-4356148 4358790 4356147 436945579#0 436945579#1 2263976 462641798 1018924455 1018924456 462641800#0 35085536#0 4376571#0 210447794#3 193420534 436943364#0 1018945233 1018943769 436938229 1018951434 1018951432 1067635382 1018951427#0 1018951427#2"/>
    </vehicle>
    <vehicle id="veh_57" type="veh__passenger" depart="171.00">
        <route edges="1018945234#0 1018945232 43118736#0 210447794#3 193420534 436943364#0 1018945233 4253891 290405994 4253812#0"/>
    </vehicle>
    <vehicle id="veh_60" type="veh__passenger" depart="180.00">
        <route edges="1018951432 1067635382 1018951427#0 1018951428#0 1018951429 1018951431 1018951433 399696957 1018945234#0 1018945232 43118736#0 215065448#0 4369048#0 35085535#0 35085535#1 436945579#0 436945579#1 53876136 1065112862 210500025#0 2263971#0 4360146 -4373994 4373994"/>
    </vehicle>
    <vehicle id="veh_61" type="veh__passenger" depart="183.00">
        <route edges="4356098#0 4356098#1 4253972#0 542471105#3 68543461#0 -4376570"/>
    </vehicle>
    <vehicle id="veh_62" type="veh__passenger" depart="186.00">
        <route edges="-38310154#1"/>
    </vehicle>
    <vehicle id="veh_63" type="veh__passenger" depart="189.00">
        <route edges="4358790 4356147 436945579#0 436945579#1 2263976 462641798 1018924455 1018924456 462641800#0 35085536#0 4376571#0 210447794#3 193420534 436943364#0 1018945233 1018943769 436938229 1018951434 1018951432"/>
    </vehicle>
    <vehicle id="veh_64" type="veh__passenger" depart="192.00">
        <route edges="-498958813#2 -498958813#0 4358790 4356147 436945579#0 436945579#1 2263976 462641798 1018924455 1018924456 462641800#0 35085536#0 4376571#0 210447794#3 193420534 436943364#0 1018945233 4253891 290405994 4253812#0 4253812#1 4253812#2 4253812#3 4254010#0"/>
    </vehicle>
    <vehicle id="veh_65" type="veh__passenger" depart="195.00">
        <route edges="1135565526#0 1135565526#1 4376571#0 43486254#0 211487026#0 4376580 542471105#0 542471107#0 542471107#1 -4370988"/>
    </vehicle>
    <vehicle id="veh_66" type="veh__passenger" depart="198.00">
        <route edges="1018924456 462641800#0 35085536#0 1135565524#0 1135565525#0 1135566097 1135566098#0 211486426#0 232725808 1135566870 211557609#0 211557609#1 211557609#2 1135566096#0 1135566095#0 -38310154#1 38310154#1"/>
    </vehicle>
    <vehicle id="veh_67" type="veh__passenger" depart="201.00">
        <route edges="1018945232 43118736#0 210447794#3 193420534 436943364#0 1018945233 4253891 290405994 4253776 673569249 4253790 423007010#2 262200662#0 38748498#2 1018951420 1064360339#0"/>
    </vehicle>
    <vehicle id="veh_68" type="veh__passenger" depart="204.00">
        <route edges="4358431 4358430 4356147 436945579#0 436945579#1 2263976 462641798 1018924455 1018924456 462641800#0 35085536#0 1135565524#0 1135565525#0 1135566097 1135566098#0 211486426#0 232725808"/>
    </vehicle>
    <vehicle id="veh_69" type="veh__passenger" depart="207.00">
        <route edges="1131262161#0 1044356411 4253812#0 4253812#1 4253812#2 4253812#3 262200663#0 262200663#1"/>
    </vehicle>
    <vehicle id="veh_70" type="veh__passenger" depart="210.00">
        <route edges="-4082560 4082560 -1094661232#2 -542471105#5 -542471105#2 -542471105#0 542471106 4358454#0 4369048#0 35085535#0 35085535#1 436945579#0 436945579#1 2263976 462641798 1018924455 1018924456 462641800#0 35085536#0 4376571#0 210447794#3"/>
    </vehicle>
    <vehicle id="veh_72" type="veh__passenger" depart="216.00">
        <route edges="-498958813#0 4358790 4356147 436945579#0 436945579#1 53876136"/>
    </vehicle>
    <vehicle id="veh_73" type="veh__passenger" depart="219.00">
        <route edges="325008374#0 -542471105#2 -542471105#0 542471106 4358454#0 4369048#0 35085535#0 35085535#1 436945579#0 436945579#1 2263976 462641798 1018924455 1018924456 462641800#0 35085536#0 4376571#0 210447794#3 193420534 436943364#0 1018945233 4253891 290405994 4253776 673569249 4253790 423007010#2 262200662#0 38748498#2 1018951420"/>
    </vehicle>
    <vehicle id="veh_75" type="veh__passenger" depart="225.00">
        <route edges="-4082552"/>
    </vehicle>
    <vehicle id="veh_76" type="veh__passenger" depart="228.00">
        <route edges="-980758926 49796165 -4356148 4358790 4356147 436945579#0 436945579#1 2263976 462641798 1018924455 1018924456 462641800#0 4358461#0"/>
    </vehicle>
    <vehicle id="veh_77" type="veh__passenger" depart="231.00">
        <route edges="1018924456 4358441"/>
    </vehicle>
    <vehicle id="veh_81" type="veh__passenger" depart="243.00">
        <route edges="1018951422#0 1018951417 38748498#0 38748498#2 1018951420 1064360339#0 1018951428#0 1018951429 1018951431 1018951433 399696957 1018945234#0 1018945232 43118736#0 215065448#0 4369048#0 35085535#0 35085535#1 436945579#0 436945579#1 53876136 1065112862 43491848#0"/>
    </vehicle>
    <vehicle id="veh_84" type="veh__passenger" depart="252.00">
        <route edges="-4362732 4358462#1 1093694666"/>
    </vehicle>
    <vehicle id="veh_85" type="veh__passenger" depart="255.00">
        <route edges="659406290 -49796159 4358455 -980758926 49796165"/>
    </vehicle>
    <vehicle id="veh_86" type="veh__passenger" depart="258.00">
        <route edges="1093694666 -53876143 4356102 1018924455 1018924456 462641800#0 35085536#0 4376571#0 43486254#0 211487026#0 4376580"/>
    </vehicle>
    <vehicle id="veh_88" type="veh__passenger" depart="264.00">
        <route edges="4358461#2 4358462#0 4358462#1 1093694666 -53876143 4356102 1018924455 1018924456 462641800#0 35085536#0 1135565524#0 1135565525#0 1135566097 1135566098#0 211486426#0 211557608#0"/>
    </vehicle>
    <vehicle id="veh_89" type="veh__passenger" depart="267.00">
        <route edges="1018951431 1018951433 399696957 1018945234#0 1018945232 43118736#0 43486254#0 211487026#0 4376580 542471105#0 542471105#1 542471105#3 1094661232#0 -1094661232#2"/>
    </vehicle>
    <vehicle id="veh_90" type="veh__passenger" depart="270.00">
        <route edges="462641798 1018924455 1018924456 462641800#0 4358461#0 4358461#2 4358462#0 -4358462#0"/>
    </vehicle>
    <vehicle id="veh_91" type="veh__passenger" depart="273.00">
        <route edges="436945579#1 2263976 462641798 1018924455 1018924456 462641800#0 35085536#0 1135565524#0 1135565525#0 1135566097 1135566098#0 211486426#0 -669229893#0 669229894#0"/>
    </vehicle>
    <vehicle id="veh_92" type="veh__passenger" depart="276.00">
        <route edges="4253776 673569249 4253790 423007010#2 262200662#0 38748498#2 1018951420 1064360339#0 1018951428#0 1018951429 1018951431 1018951433 399696957 1018945234#0 1018945232 43118736#0 210447794#3 193420534 436943364#0 1018945233"/>
    </vehicle>
    <vehicle id="veh_93" type="veh__passenger" depart="279.00">
        <route edges="4376571#0 210447794#3 193420534 436943364#0 1018945233 4253891 290405994 4253776 673569249"/>
    </vehicle>
    <vehicle id="veh_94" type="veh__passenger" depart="282.00">
        <route edges="4358421#0 757744789#1 35085535#0"/>
    </vehicle>
    <vehicle id="veh_95" type="veh__passenger" depart="285.00">
        <route edges="1135566098#0 211486426#0 232725808 1135566870 211557609#0 211557609#1 211557609#2 1135566096#0 1135566095#0 1135566095#1 1135565527#0"/>
    </vehicle>
    <vehicle id="veh_97" type="veh__passenger" depart="291.00">
        <route edges="211557607#0 232725809 669229893#0 232725808 1135566870 211557609#0 211557609#1 1135545587 4370889#0 1018951427#2 1067635381 1018951424 1018951419 436938220#0 436938220#2 1018951418 1018951421#0 1024601863#0 1018951416"/>
    </vehicle>
    <vehicle id="veh_98" type="veh__passenger" depart="294.00">
        <route edges="-498958813#0 4358790 4356147 436945579#0 436945579#1 2263976 462641798 1018924455 1018924456 462641800#0 4358461#0 4358461#2 4358462#0 4358462#1 1093694666 -53876143 4356102"/>
    </vehicle>
    <vehicle id="veh_99" type="veh__passenger" depart="297.00">
        <route edges="1067635384 1067635385#0 232725809 669229893#0 232725808 1135566870 211557609#0 211557609#1 211557609#2 1135566096#0 1135566095#0 1135566095#1 1135565527#0 1135565526#0 1135565526#1 4376571#0 215065448#0 4356098#0 4356098#1 4356098#2 1131283657#0 498958813#0 498958813#2 659406290 -49796159 318825723"/>
    </vehicle>
    <vehicle id="veh_100" type="veh__passenger" depart="300.00">
        <route edges="1131262161#0 1044356411 4253812#0 4253894 4254981 4358454#0 4369048#0 35085535#0 35085535#1 436945579#0 436945579#1 2263976 462641798 1018924455 1018924456 462641800#0"/>
    </vehicle>
    <vehicle id="veh_102" type="veh__passenger" depart="306.00">
        <route edges="1018951417 38748498#0 38748498#2 1018951420 1064360339#0 1018951428#0 1018951429 1018951431 1018951433 399696957 1018945234#0 1018945232 43118736#0 210447794#3 1135565524#0"/>
    </vehicle>
    <vehicle id="veh_104" type="veh__passenger" depart="312.00">
        <route edges="1135565524#0 1135565525#0 1135566097 1135566098#0 211486426#0 232725808 1135566870 211557609#0 211557609#1 1135545587 4370889#0 1018951427#2 1067635381 1018951424 1018951419 436938220#0 436938220#2 1018951418 1018951421#0"/>
    </vehicle>
    <vehicle id="veh_105" type="veh__passenger" depart="315.00">
        <route edges="4356098#1 4356098#2 1131283657#0 4358790 4356147 436945579#0 436945579#1 53876136 1065112862 210500025#0 2263971#0 4360146 -4373994 4373994"/>
    </vehicle>
    <vehicle id="veh_106" type="veh__passenger" depart="318.00">
        <route edges="542471106 4358454#0 4369048#0 35085535#0 35085535#1 436945579#0 436945579#1 2263976 462641798 1018924455 1018924456 462641800#0 35085536#0 1135565524#0 1135565525#0 1135566097 1135566098#0 211486426#0 232725808 1135566870 211557609#0 211557609#1 211557609#2 1135566096#0 1135566095#0 1135566095#1 1135565527#0 1135565526#0 1135565526#1"/>
    </vehicle>
    <vehicle id="veh_107" type="veh__passenger" depart="321.00">
        <route edges="462641800#0 4358421#0"/>
    </vehicle>
    <vehicle id="veh_109" type="veh__passenger" depart="327.00">
        <route edges="1018951427#0 1018951428#0 1018951429 1018951431 1018951433 399696957 1018945234#0 1018945232 43118736#0 215065448#0 4369048#0 35085535#0 35085535#1 436945579#0 436945579#1 2263976 462641798 1018924455 1018924456 462641800#0 4358461#0 4358461#2"/>
    </vehicle>
    <vehicle id="veh_111" type="veh__passenger" depart="333.00">
        <route edges="53876136 1065112862 210500025#0 2263971#0 603198589 4356104 318825723 -498958813#2 -498958813#0 4358790 4356147 436945579#0 436945579#1 2263976 462641798 1018924455 1018924456 462641800#0 35085536#0 4376571#0 210447794#3 193420534 436943364#0 1018945233 1018943769 436938229 1018951434 1018951432 1067635382 1018951427#0 1018951427#2 1067635381 1018951424 1018951419 436938220#0 436938220#2 1018951418 1018951421#0"/>
    </vehicle>
    <vehicle id="veh_112" type="veh__passenger" depart="336.00">
        <route edges="4358790 4356147 436945579#0 436945579#1 2263976 462641798 1018924455 1018924456 462641800#0 35085536#0 4376571#0 210447794#3 193420534 436943364#0 1018945233 1018943769 436938229 1018951434 1018951432 1067635382 1018951427#0 1131262161#0 4253830"/>
    </vehicle>
    <vehicle id="veh_113" type="veh__passenger" depart="339.00">
        <route edges="4370948 -4370948 38310154#1 1135566095#1 1135565527#0 1135565526#0 1135565526#1 1135565524#0 1135565525#0 1135566097 1135566098#0"/>
    </vehicle>
    <vehicle id="veh_115" type="veh__passenger" depart="345.00">
        <route edges="4376571#0 210447794#3 193420534 436943364#0 1018945233 1018943769 436938229 1018951434 1018951432 1067635382 1018951427#0 1131262161#0 4253830"/>
    </vehicle>
    <vehicle id="veh_118" type="veh__passenger" depart="354.00">
        <route edges="-498958813#0 4358790 4356147 436945579#0 436945579#1 2263976 462641798 1018924455 1018924456 462641800#0 4358461#0 4358461#2 4358462#0 -4358462#0"/>
    </vehicle>
    <vehicle id="veh_119" type="veh__passenger" depart="357.00">
        <route edges="-4370989 4370989 4370987 673956940 325008374#0 -542471105#2 -542471105#0 542471106 4358454#0 4369048#0 35085535#0 35085535#1 436945579#0 436945579#1 2263976 462641798"/>
    </vehicle>
    <vehicle id="veh_120" type="veh__passenger" depart="360.00">
        <route edges="4369048#0 35085535#0 35085535#1 436945579#0 4358431 4358430 23198010 4356098#1 4253972#0 -542471105#2 542471107#0 4370987"/>
    </vehicle>
    <vehicle id="veh_121" type="veh__passenger" depart="363.00">
        <route edges="1135565525#0 1135566097 1135566098#0 211486426#0 232725808 1135566870 211557609#0 211557609#1 1135545587 4370889#0 1131262161#0 1044356411 4253812#0 4253894"/>
    </vehicle>
    <vehicle id="veh_122" type="veh__passenger" depart="366.00">
        <route edges="4362731 4358462#1 1093694666 -53876143 4356102 1018924455 1018924456 462641800#0 35085536#0 4376571#0 210447794#3 193420534"/>
    </vehicle>
    <vehicle id="veh_123" type="veh__passenger" depart="369.00">
        <route edges="4253776 673569249 4253790 423007010#2 262200662#0 38748498#2 1018951420 1064360339#0 1018951427#2 1067635381 1018951424"/>
    </vehicle>
    <vehicle id="veh_125" type="veh__passenger" depart="375.00">
        <route edges="49796165 -4356148 4358790 4356147 436945579#0 436945579#1 2263976 462641798 1018924455 1018924456 462641800#0 35085536#0 4376571#0 210447794#3 193420534 436943364#0 1018945233 4253891 290405994 4253776 673569249 673025496 673569250 4253785"/>
    </vehicle>
    <vehicle id="veh_126" type="veh__passenger" depart="378.00">
        <route edges="542471105#1 -542471105#2 -542471105#0 542471106 4358454#0 4369048#0 35085535#0 35085535#1 436945579#0 436945579#1 2263976 462641798 1018924455 1018924456 462641800#0 35085536#0 1135565524#0 1135565525#0 1135566097 1135566098#0 211486426#0 232725808"/>
    </vehicle>
    <vehicle id="veh_127" type="veh__passenger" depart="381.00">
        <route edges="1064360339#0 1018951427#2 1067635381 1018951424 1018951419 436938220#0"/>
    </vehicle>
    <vehicle id="veh_128" type="veh__passenger" depart="384.00">
        <route edges="4370886 1018943769 436938229 1018951434 1018951432 1067635382 1018951427#0 1018951428#0 1018951429 1018951431 1018951433 399696957 1018945234#0 1018945232 43118736#0 210447794#3 1135565524#0 1135565525#0 1135566097 1135566098#0 211486426#0 232725808 1135566870 211557609#0 211557609#1 211557609#2 1135566096#0 1135566095#0 -38310154#1 -38310154#0"/>
    </vehicle>
    <vehicle id="veh_129" type="veh__passenger" depart="387.00">
        <route edges="4356098#0 4356098#1 4356098#2 1131283657#0 498958813#0 498958813#2 659406290 -49796159"/>
    </vehicle>
    <vehicle id="veh_130" type="veh__passenger" depart="390.00">
        <route edges="-53638574 4358461#2 4358462#0 4358462#1 1093694666 -53876143 4356102 1018924455 1018924456 462641800#0 4358421#0 757744789#1 35085535#0 35085535#1 436945579#0 436945579#1 53876136 1065112862 210500025#0 2263971#0 603198589 498958810#0"/>
    </vehicle>
    <vehicle id="veh_131" type="veh__passenger" depart="393.00">
        <route edges="-4358462#0 4358462#0 4358462#1 1093694666 -53876143 4356102 1018924455 1018924456 462641800#0 35085536#0 4376571#0 210447794#3 193420534 436943364#0 1018945233 1018943769 436938229 1018951434 1018951432 1067635382 1018951427#0 1018951428#0 1018951429"/>
    </vehicle>
    <vehicle id="veh_132" type="veh__passenger" depart="396.00">
        <route edges="673956940 325008374#0 -542471105#2 -542471105#0 542471106 4358454#0 4369048#0 35085535#0 35085535#1 436945579#0 436945579#1 2263976 462641798 1018924455 1018924456 462641800#0 4358461#0 4358461#2 4362701#0 211557608#2"/>
    </vehicle>
    <vehicle id="veh_133" type="veh__passenger" depart="399.00">
        <route edges="-53638574 4358461#2 4358462#0 4358462#1 1093694666 -53876143 4356102 1018924455 1018924456 462641800#0 35085536#0 4376571#0 210447794#3 193420534 436943364#0 1018945233 1018945234#0 1018945232"/>
    </vehicle>
    <vehicle id="veh_134" type="veh__passenger" depart="402.00">
        <route edges="1018951428#0 1018951429 1018951431 1018951433 399696957 1018945234#0 1018945232 43118736#0 215065448#0 4356098#0 4356098#1 4356098#2 1131283657#0 498958813#0 498958813#2 659406290 4360035"/>
    </vehicle>
    <vehicle id="veh_135" type="veh__passenger" depart="405.00">
        <route edges="-49798175 49798175 49796165 -4356148 4358790 23198010 4356098#1 4253972#0 -542471105#2 -542471105#0 542471105#0"/>
    </vehicle>
    <vehicle id="veh_136" type="veh__passenger" depart="408.00">
        <route edges="1135566098#0 211486426#0 232725808 1135566870 211557609#0 211557609#1 1135545587 4370889#0 1131262161#0 1044356411 4253776 673569249"/>
    </vehicle>
    <vehicle id="veh_138" type="veh__passenger" depart="414.00">
        <route edges="1018951431 1018951433 399696957 4253891 290405994 4253812#0 4253812#1 4253812#2 4253812#3 262200663#0 262200663#1 262200663#2"/>
    </vehicle>
    <vehicle id="veh_139" type="veh__passenger" depart="417.00">
        <route edges="-49798175 49798175 49796165 -4356148 4358790 4356147 436945579#0 436945579#1 53876136 1065112862 43491848#0"/>
    </vehicle>
    <vehicle id="veh_140" type="veh__passenger" depart="420.00">
        <route edges="-4358462#0 4358462#0 4358462#1 1093694666 -53876143 4356102 1018924455 1018924456 462641800#0 35085536#0 1135565524#0 1135565525#0 1135566097 1135566098#0 211486426#0 232725808 1135566870 211557609#0 211557609#1 211557609#2 1135566096#0 1135566095#0 -38310154#1 -38310154#0"/>
    </vehicle>
    <vehicle id="veh_142" type="veh__passenger" depart="426.00">
        <route edges="4253812#0 4253894 4254981 4358454#0 4369048#0 35085535#0 35085535#1 436945579#0 436945579#1 2263976"/>
    </vehicle>
    <vehicle id="veh_143" type="veh__passenger" depart="429.00">
        <route edges="1094661232#3 -1065127950 -1094661232#2 -542471105#5 -542471105#2 542471107#0 4370987 -4370987"/>
    </vehicle>
    <vehicle id="veh_144" type="veh__passenger" depart="432.00">